10
50	1
C          1.02850        0.11260       -0.07520
C          2.54890        0.07790       -0.05570
C          3.03020       -1.10910        0.61100
C          3.42700       -2.08750        1.16050
H          0.67320        1.01560       -0.58240
H          0.61970        0.10990        0.94120
H          0.61970       -0.75670       -0.60180
H          2.92270        0.97510        0.45000
H          2.92270        0.11290       -1.08500
H          3.78200       -2.96360        1.65260
