12
22	1
N          1.03290        0.07130       -0.07760
C          2.49180        0.05070       -0.08030
C          3.03690        1.06740       -1.08510
N          4.49580        1.04670       -1.08790
H          0.69360       -0.62760        0.62240
H          0.68250       -0.22650       -1.01730
H          2.85280       -0.96880       -0.34340
H          2.85900        0.30660        0.93770
H          2.67600        2.08680       -0.82200
H          2.66960        0.81150       -2.10310
H          4.84630        1.34460       -0.14830
H          4.83510        1.74540       -1.78810
