8
55	1
C          0.88980       -0.02000       -0.02400
C          2.22180        0.06420       -0.05340
C          2.94450        0.97940        0.84580
O          4.16220        1.04090        0.80250
H          0.37500       -0.70040       -0.69460
H          0.30690        0.58500        0.66450
H          2.78070       -0.55220       -0.75180
H          2.40220        1.60290        1.55020
