12
29	1
C          1.07110        0.07340       -0.06400
C          2.58970        0.00610       -0.00470
O          2.96970       -1.09860        0.78650
C          4.37610       -1.16560        0.84560
H          0.75660        0.93930       -0.68430
H          0.65500        0.19340        0.95890
H          0.66600       -0.85780       -0.51410
H          2.95500        0.95890        0.44260
H          2.96610       -0.10450       -1.04750
H          4.65760       -2.03830        1.46990
H          4.80470       -0.26320        1.33590
H          4.81690       -1.33120       -0.16260
