13
7	1
C          1.00360       -0.07110        0.06960
N          2.47310       -0.07160        0.09440
C          2.97470        1.11890        0.79520
C          2.97470       -1.29450        0.73730
H          0.63040        0.83620       -0.45210
H          0.57980       -0.09570        1.09790
H          0.63040       -0.95230       -0.49500
H          2.62480        2.04020        0.28220
H          4.08550        1.13370        0.77700
H          2.63100        1.14260        1.85310
H          2.62480       -2.19020        0.18070
H          2.63100       -1.36880        1.79280
H          4.08550       -1.30830        0.71840
