7
20	1
C         -0.16100        0.92240        0.06960
C         -0.85700       -0.37800       -0.06960
O          0.54420       -0.29140       -0.00000
H         -0.05460        1.34150        1.09170
H          0.03200        1.50370       -0.85580
H         -1.14670       -0.69910       -1.09170
H         -1.23350       -0.86110        0.85580
