9
37	1
F          1.80990       -1.11120       -0.81310
C          2.37960       -0.04010       -0.15130
C          2.85150       -0.48600        1.20110
C          4.13400       -0.39030        1.56360
H          1.61710        0.75630       -0.02600
H          3.21140        0.36180       -0.76900
H          2.12980       -0.89620        1.90120
H          4.87890        0.01570        0.88590
H          4.44390       -0.72150        2.54950
