8
61	1
C          0.90800       -0.09230       -0.01180
C          2.24350       -0.07870       -0.02410
C          2.95260        0.84490       -0.84860
C          3.55150        1.62120       -1.54170
H          0.38600       -0.80210        0.62190
H          0.31620        0.58390       -0.61550
H          2.81530       -0.75560        0.58030
H          4.07540        2.29820       -2.14610
