9
49	1
C          0.86610       -0.29240       -0.17250
O          2.19120        0.06490       -0.22580
N          2.57290        1.27190        0.13780
C          3.81080        1.60370        0.08720
H          0.75570       -1.34090       -0.51770
H          0.26750        0.37080       -0.83240
H          0.49380       -0.21400        0.87110
H          4.11490        2.59990        0.38880
H          4.55980        0.89550       -0.25560
