7
45	2
O          0.99060       -0.36320       -0.20380
N          2.31210       -0.14490       -0.15000
C          2.84770        0.93230       -0.76640
O          4.05150        1.12970       -0.72230
H          0.63190        0.03080        0.63250
H          2.91770       -0.80820        0.35720
H          2.20920        1.62690       -1.30340
