10
31	1
C          0.88650       -0.03990       -0.01740
C          2.40570        0.06220        0.04540
C          2.88480        1.25840       -0.72050
O          3.51470        2.13970       -0.15810
H          0.54990       -0.93380        0.54900
H          0.54840       -0.13890       -1.07120
H          0.42080        0.86310        0.43250
H          2.85580       -0.85240       -0.39550
H          2.72160        0.13610        1.10910
H          2.67420        1.34220       -1.78200
