6
17	1
F          0.85170       -0.05990       -0.01850
C          2.21010       -0.05870       -0.02110
F          2.88680       -0.57650        1.03680
C          2.87590        0.44840       -1.05690
H          2.33750        0.86270       -1.90330
H          3.96120        0.45060       -1.06130
