8
27	1
F          0.94570       -0.04100       -0.22760
C          2.31570       -0.08820       -0.04410
C          2.79870        1.20920        0.58630
F          4.16760        1.15550        0.77390
F          2.49400        2.27550       -0.24000
H          2.81030       -0.23880       -1.02700
H          2.56320       -0.94350        0.61950
H          2.30330        1.35650        1.56920
