8
6	1
C          1.07850        0.01720       -0.05840
C          2.59950        0.01720       -0.05840
F          3.06590        0.03350        1.24320
F          3.06590       -1.11820       -0.69510
F          3.06590        1.13630       -0.72330
H          0.69950       -0.88020        0.47480
H          0.69950        0.00410       -1.10230
H          0.69950        0.92770        0.45220
