11
24	1
C          0.89890        0.00690        0.03590
C          2.42510        0.00040        0.07710
C          2.95220        0.15100        1.50370
F          4.33450        0.11690        1.49080
F          2.53800        1.35500        2.04570
H          0.55520       -0.11180       -1.01320
H          0.50250        0.96630        0.43120
H          0.49320       -0.83250        0.64010
H          2.81190        0.83350       -0.54880
H          2.79140       -0.96010       -0.34560
H          2.58100       -0.68190        2.13810
