15
29	1
C          2.44610       -0.40100        1.17280
O          2.68060        0.33160       -0.00950
C          3.02590       -0.53410       -1.07760
C          2.36150       -0.01720       -2.35300
C          4.54770       -0.56770       -1.24240
H          2.26880        0.31690        1.99970
H          3.33080       -1.01200        1.45770
H          1.53200       -1.02730        1.07640
H          2.65580       -1.57850       -0.92980
H          2.69920        1.01770       -2.57640
H          1.25810       -0.01140       -2.22560
H          2.61290       -0.67290       -3.21410
H          4.94050        0.45440       -1.43110
H          4.82900       -1.22560       -2.09230
H          5.02310       -0.96610       -0.32180
