8
74	1
O          1.15720       -0.27060       -0.00880
C          2.28530        0.46040        0.11970
O          2.56820        1.30140       -0.72000
C          3.19380        0.24450        1.28980
F          2.69340       -0.74580        2.11600
H          0.56050       -0.14200       -0.75980
H          3.28430        1.18720        1.86930
H          4.19890       -0.05910        0.92930
