14
11	1
C          0.94430       -0.02670        0.07190
C          2.47680       -0.03660        0.11270
C          2.98860        1.04990        1.06690
C          2.98870       -1.42040        0.53630
F          4.37220       -1.44840        0.52190
H          0.57600        0.96590       -0.26460
H          0.52220       -0.24280        1.07720
H          0.57470       -0.79260       -0.64300
H          2.85570        0.18310       -0.90980
H          2.62910        0.86510        2.10220
H          2.63030        2.04840        0.73730
H          4.09910        1.06900        1.07230
H          2.61780       -2.19400       -0.16970
H          2.63200       -1.67390        1.55790
