12
38	1
C          0.90840        0.11020        0.09240
C          2.40410       -0.17870        0.02450
F          3.10820        0.99130        0.24500
C          2.78920       -1.18700        1.07350
C          3.33920       -2.36140        0.75000
H          0.63700        0.86170       -0.67890
H          0.63490        0.51140        1.09190
H          0.32900       -0.81870       -0.09790
H          2.64750       -0.54920       -0.99570
H          2.61650       -0.95300        2.12020
H          3.52550       -2.62620       -0.28630
H          3.60620       -3.06700        1.53010
