9
73	1
O          1.01960       -0.06620       -0.02020
C          2.36520        0.32300       -0.08210
C          2.95060        0.46400        1.29310
O          2.19910        0.20570        2.38540
O          4.11370        0.81510        1.42150
H          1.01330       -1.04570        0.14330
H          2.42510        1.30010       -0.60580
H          2.95350       -0.41090       -0.67850
H          2.56540        0.29310        3.27690
