9
78	1
F          1.83220        1.29310       -0.50950
C          2.40160        0.10750       -0.08520
C          2.88600        0.26500        1.32660
F          1.99460        0.58880        2.30030
C          4.17290        0.09300        1.64470
H          3.22630       -0.16190       -0.77970
H          1.63650       -0.69560       -0.12000
H          4.90720       -0.16620        0.88790
H          4.49840        0.21230        2.67310
