13
58	1
C          0.98320        0.05950        0.05240
C          2.48830        0.06430        0.00530
C          3.14240       -0.63850       -0.93280
C          3.25280        0.87350        1.02430
O          2.94800        0.43880        2.32100
H          0.54160       -0.56860       -0.75090
H          0.60630        1.09670       -0.06840
H          0.64150       -0.33730        1.03110
H          2.60030       -1.22220       -1.67070
H          4.22740       -0.63810       -0.97290
H          2.95930        1.94000        0.93000
H          4.35460        0.83160        0.86250
H          3.43410       -0.41680        2.45420
