11
23	1
C          0.93320       -0.10710        0.02040
C          2.45890       -0.06270        0.02020
F          2.90590        0.29090       -1.24130
C          2.98120        0.94190        1.04520
F          4.36410        0.95230        1.02700
H          0.58070       -0.84730       -0.72860
H          0.51650        0.88940       -0.23990
H          0.55630       -0.40890        1.02100
H          2.84990       -1.07300        0.26860
H          2.63960        0.66180        2.06460
H          2.61080        1.96220        0.80810
