15
3	1
C          0.94210       -0.08940       -0.03250
C          2.48190       -0.09210       -0.04420
C          3.00650       -0.27150       -1.48080
C          2.99610        1.23970        0.52130
O          2.96490       -1.12990        0.77470
H          0.54550        0.73960       -0.65780
H          0.56360        0.03640        1.00460
H          0.54780       -1.04820       -0.43240
H          2.65130        0.55380       -2.13510
H          2.65110       -1.23370       -1.90800
H          4.11760       -0.27710       -1.48880
H          2.64010        2.09460       -0.09360
H          4.10740        1.25170        0.53310
H          2.63820        1.38130        1.56380
H          2.63180       -1.99110        0.40820
