10
150	1
O          1.18580       -0.00080        0.63910
C          2.34940       -0.00010        0.27150
C          3.27320        1.05940       -0.03260
N          4.27550        0.00100       -0.35690
C          3.27370       -1.05860       -0.03480
H          3.53280        1.66750        0.86220
H          2.95430        1.64070       -0.92390
H          5.00460       -0.00030        0.39640
H          3.53350       -1.66820        0.85910
H          2.95520       -1.63850       -0.92700
