13
180	1
C          1.56180       -0.18320       -0.28610
N          2.98460       -0.29630        0.03640
C          3.17850       -0.44560        1.48290
C          4.65880       -0.62640        1.80800
F          5.37920        0.48780        1.41560
H          1.44140       -0.07720       -1.38480
H          1.11460        0.70840        0.20620
H          1.01810       -1.09850        0.03270
H          3.46130        0.57820       -0.28720
H          2.63370       -1.34600        1.84450
H          2.79230        0.44910        2.02160
H          5.05630       -1.52330        1.28720
H          4.78370       -0.76470        2.90270
