13
183	1
C          1.16440       -0.03780       -0.09090
O          2.57230        0.01010       -0.05740
C          2.98340        0.95360        0.90850
C          4.50810        1.01190        0.94120
O          5.01400        1.43600       -0.29610
H          0.85900       -0.78540       -0.85150
H          0.73300        0.93920       -0.40340
H          0.74680       -0.37620        0.88350
H          2.63650        0.65220        1.92340
H          2.60580        1.97180        0.65800
H          4.93350        0.02090        1.22240
H          4.83110        1.73620        1.71870
H          5.06080        0.63290       -0.87780
