9
102	1
N          1.06290       -0.53320        0.06040
C          2.34950        0.07200        0.07260
N          2.80130        0.60810        1.14980
C          3.18100        0.09320       -1.14620
O          2.77810       -0.40790       -2.18370
H          0.48330       -0.54730        0.91230
H          0.69350       -0.96510       -0.79880
H          2.24750        0.61120        2.01900
H          4.16160        0.55840       -1.12400
