13
174	1
O          2.92100        1.31280        0.28820
C          2.49530        0.02990       -0.07990
C          3.04930       -1.00850        0.89740
C          4.58110       -1.04120        0.89090
O          5.04900       -2.02960        1.76730
H          2.52740        1.93460       -0.37750
H          2.84640       -0.20900       -1.10900
H          1.38400       -0.01630       -0.04610
H          2.66710       -2.01130        0.60710
H          2.68650       -0.77640        1.92250
H          5.00660       -0.05010        1.16950
H          4.94570       -1.28040       -0.13080
H          4.97410       -1.65580        2.68410
