12
137	1
F          0.92770        0.07820       -0.05560
C          2.31100        0.07840       -0.02730
C          2.95530        1.13730        0.86620
C          3.98650        0.07880        1.25620
C          2.95570       -0.98020        0.86620
H          2.79020        0.07850       -1.03410
H          2.29300        1.32180        1.74530
H          3.30770        2.08490        0.40660
H          4.39270        0.07890        2.28990
H          4.80060        0.07890        0.49280
H          2.29340       -1.16490        1.74540
H          3.30850       -1.92770        0.40670
