12
159	1
N          1.16960        0.06090        0.07510
C          2.60360       -0.23240        0.09890
C          3.24250       -0.76550       -1.17650
C          3.31130        0.72270       -0.85900
O          4.63680        1.02930       -0.53570
H          0.69230       -0.63410        0.69160
H          0.75620       -0.02590       -0.88210
H          3.12100       -0.12490        1.07660
H          2.42700       -1.16180       -1.81660
H          4.04630       -1.44490       -0.82300
H          2.89080        1.20290       -1.76910
H          4.57620        1.75640        0.13570
