10
162	1
O          1.00630        0.18940        0.02550
C          2.38570       -0.02100        0.11030
C          3.04370       -0.61070       -1.12980
C          3.05530        0.88960       -0.90680
F          4.36420        1.25160       -0.63980
H          0.59850       -0.69160        0.22610
H          2.87990        0.22370        1.07490
H          2.22330       -1.07390       -1.71980
H          3.86320       -1.24190       -0.72520
H          2.56670        1.29910       -1.81650
