10
152	1
O          1.33690       -0.20670        0.45910
C          2.49410       -0.07910        0.09270
C          3.38220        1.09130       -0.09990
C          4.38970       -0.10080       -0.52670
N          3.32170       -1.01380       -0.25420
H          3.57810        1.57210        0.88190
H          2.98930        1.72160       -0.92550
H          5.23380       -0.27000        0.17730
H          4.65250       -0.12240       -1.60710
H          3.22270       -2.03790       -0.30670
