14
135	1
N          1.06500        0.04000       -0.08110
C          2.52550        0.04210       -0.02890
C          3.16750        1.11300        0.85810
C          4.19240        0.05070        1.26180
C          3.15910       -1.01240        0.88130
H          0.75310        0.89800       -0.59020
H          0.66400        0.07180        0.88440
H          3.00710        0.02530       -1.03530
H          2.51510        1.31440        1.74060
H          3.52870        2.05130        0.38660
H          4.59860        0.06050        2.29550
H          5.00830        0.03920        0.50030
H          2.50510       -1.18850        1.76810
H          3.51290       -1.96430        0.43200
