13
91	1
C          2.95760        0.46650        1.28090
O          2.44620        0.57670        0.00290
C          3.16690        0.49050       -1.15240
C          2.42890        0.63680       -2.45260
C          4.49900        0.28150       -1.15650
H          2.13090        0.57920        2.01190
H          3.70430        1.26760        1.46760
H          3.42150       -0.53260        1.42550
H          1.65400       -0.15460       -2.52510
H          3.10120        0.55180       -3.33350
H          1.93410        1.62990       -2.48340
H          5.06140        0.17170       -0.23630
H          5.04670        0.21740       -2.09190
