11
113	1
C          1.04760       -0.00750        0.08670
C          2.54900        0.00890        0.07370
C          3.23830        0.91060       -0.64310
C          3.25200       -0.94430        0.83140
C          3.84710       -1.75110        1.47270
H          0.62220        0.78280       -0.54150
H          0.67200        0.13960        1.10500
H          0.67200       -0.96630       -0.28630
H          2.73580        1.66360       -1.24160
H          4.32440        0.92080       -0.65120
H          4.38070       -2.47260        2.04620
