8
118	1
F          0.86350       -0.00270        0.00550
C          2.21290        0.00270        0.01530
C          2.85200        0.56490        1.04250
C          2.89770       -0.59320       -1.07340
C          3.48300       -1.09650       -1.99300
H          2.28820        1.00950        1.85480
H          3.93450        0.59280        1.09340
H          4.00470       -1.54230       -2.80760
