13
185	1
C          2.31950       -1.89380        0.66200
O          2.63690       -0.53760        0.88070
C          3.37410       -0.03380       -0.21640
O          4.71060       -0.49630       -0.19140
C          5.43880        0.19680        0.79730
H          1.78990       -2.27640        1.55850
H          3.23520       -2.51380        0.53930
H          1.62770       -2.01120       -0.20110
H          3.32070        1.07900       -0.21550
H          2.90780       -0.30870       -1.19010
H          6.46570       -0.22140        0.83070
H          4.99780        0.05050        1.80820
H          5.53360        1.27600        0.54500
