10
89	1
N          0.92370       -0.00870        0.02840
N          2.31550        0.03040        0.04520
C          3.03260        0.41630       -1.04620
N          2.41820        0.79950       -2.19390
O          4.25320        0.42270       -0.98950
H          0.59160       -0.31000        0.97300
H          0.62540       -0.74150       -0.65600
H          2.81810       -0.23250        0.90830
H          1.39270        0.82020       -2.27500
H          2.97950        1.08760       -3.00890
