12
213	1
C          0.93350       -0.18980       -0.11200
C          2.43880        0.01900       -0.17240
O          2.74470        1.29970        0.22310
N          3.99580        1.71010        0.25090
C          4.27840        2.90540        0.62010
H          0.68550       -1.22400       -0.43130
H          0.42200        0.52820       -0.78790
H          0.56900       -0.03610        0.92590
H          2.79170       -0.14560       -1.21380
H          2.93880       -0.71040        0.50150
H          5.31160        3.23380        0.63960
H          3.49140        3.59410        0.91420
