10
259	2
N          1.06240       -0.13660       -0.05200
N          2.42610        0.03540       -0.01070
C          2.94780        1.18680        0.22860
N          4.35580        1.33220        0.26440
O          4.90120        2.52860        0.52260
H          0.67240       -1.06940       -0.24580
H          0.42030        0.65480        0.10820
H          2.31520        2.05350        0.40420
H          4.96620        0.51630        0.10680
H          5.07060        2.92890       -0.36840
