10
276	1
O          0.92590        0.12970        0.02340
N          2.24030        0.18270        0.03080
C          2.88460        0.17420        1.14070
C          4.35640        0.23400        1.13490
C          5.04970        0.22650        2.27580
H          0.44650        0.13640       -0.81590
H          2.34440        0.12300        2.08370
H          4.88750        0.28510        0.18850
H          4.54470        0.17610        3.23610
H          6.13370        0.27120        2.25130
