13
214	1
C          1.00110        0.06400       -0.04890
C          2.52130        0.04520       -0.06650
C          3.05790       -0.95030       -1.09320
C          4.52830       -0.96250       -1.10090
C          5.72900       -0.97460       -1.10940
H          0.63960        0.78360        0.69240
H          0.59960       -0.92090        0.21000
H          0.60090        0.35290       -1.02600
H          2.88990       -0.21130        0.93450
H          2.89140        1.05330       -0.29110
H          2.68940       -0.68930       -2.09210
H          2.68560       -1.95610       -0.86590
H          6.79460       -0.98500       -1.11640
