13
204	2
C          1.05180        0.66520        0.10550
C          2.31450       -0.18130        0.23790
N          2.18640       -1.42800       -0.49440
C          3.22430       -2.40660       -0.53810
N          4.34600       -2.24420        0.07270
H          1.17490        1.61150        0.67330
H          0.17730        0.11450        0.51290
H          0.86520        0.91000       -0.96180
H          2.48570       -0.39830        1.31450
H          3.17450        0.39820       -0.16230
H          1.31470       -1.62760       -1.00860
H          3.06330       -3.31780       -1.10460
H          4.56040       -1.40360        0.62610
