13
261	1
C          1.10820        0.46880        0.39620
O          2.45990        0.25360        0.24950
C          3.08420       -0.79090        0.84120
C          4.39990       -0.96120        0.67120
C          5.13450       -2.10400        1.30740
H          0.81990        1.37590       -0.17360
H          0.85900        0.62470        1.46790
H          0.53680       -0.39880        0.00160
H          2.51650       -1.48910        1.45310
H          4.95710       -0.25840        0.05850
H          4.45970       -2.75160        1.90750
H          5.92650       -1.70360        1.97370
H          5.60630       -2.72130        0.51510
