12
285	1
C          1.01920       -0.01300       -0.08740
C          2.48200       -0.01330       -0.08760
C          3.68760       -0.00870       -0.08410
C          5.15360        0.00400       -0.07520
N          5.64330        0.01580        1.29800
H          0.65050        0.12370        0.95010
H          0.64760       -0.97860       -0.48780
H          0.64990        0.81810       -0.72280
H          5.51720        0.90270       -0.61910
H          5.52280       -0.90630       -0.59340
H          5.33920        0.90200        1.76440
H          6.68870        0.01210        1.27620
