10
268	1
F          0.84650       -0.08170       -0.17550
C          2.19760       -0.22060       -0.15250
C          2.98140        0.84680       -0.32570
C          4.45290        0.71850       -0.30440
C          5.23680        1.78530       -0.47750
H          2.62690       -1.20530        0.00770
H          2.52550        1.82060       -0.48410
H          4.91000       -0.25470       -0.14610
H          4.81090        2.77150       -0.63790
H          6.31610        1.67340       -0.45900
