9
223	1
O          2.68190        0.51910        1.12660
C          2.20530       -0.14810        0.22050
C          3.07810       -0.94960       -0.70640
C          4.53940       -0.80960       -0.38820
O          5.20290       -1.78970       -0.08980
H          1.12950       -0.16520        0.08100
H          2.90770       -0.60190       -1.74680
H          2.77690       -2.01710       -0.63600
H          5.01160        0.16700       -0.42750
