11
208	2
C          0.85740        0.31910        0.11560
N          2.16220       -0.27190       -0.17070
N          1.99610       -1.62580       -0.44360
C          2.38570       -2.12740       -1.63690
O          2.24990       -3.31630       -1.87750
H          0.98260        1.40210        0.32590
H          0.39240       -0.16390        1.00300
H          0.18630        0.20880       -0.76320
H          2.76990       -0.18640        0.67660
H          1.58530       -2.25110        0.26900
H          2.82260       -1.47530       -2.38730
