10
252	1
O          1.12370        0.08800       -0.44370
C          2.46520        0.03690       -0.04420
C          2.70200        0.99330        1.08420
N          3.14480        0.56740        2.21150
O          3.35380        1.40510        3.20400
H          0.60670       -0.42550        0.23090
H          3.10340        0.33030       -0.90330
H          2.74560       -1.00510        0.23470
H          2.49620        2.05100        0.94030
H          3.68710        1.07830        4.05030
