10
217	1
F          0.86690       -0.07760       -0.05760
C          2.24940       -0.07310       -0.03240
C          2.78710       -0.32240       -1.43720
C          4.23110       -0.32240       -1.43720
C          5.42130       -0.32240       -1.43720
H          2.59740       -0.86930        0.66070
H          2.59740        0.91290        0.34450
H          2.42600        0.47360       -2.12230
H          2.42600       -1.30550       -1.80660
H          6.47960       -0.32240       -1.43700
