12
256	2
C          1.00230        0.01050       -0.02800
N          2.43440       -0.12640        0.08180
C          2.97050       -0.96940        0.89240
N          4.38130       -1.07630        0.97260
N          4.96470       -1.99580        1.83520
H          0.76710        0.78530       -0.78580
H          0.57180        0.32060        0.94810
H          0.54930       -0.95250       -0.34690
H          2.34700       -1.60510        1.51800
H          4.97530       -0.47770        0.37710
H          4.69960       -1.73620        2.81240
H          6.00370       -1.91660        1.74850
