11
269	1
C          1.01270       -0.01860       -0.09760
C          2.50610       -0.15380       -0.13820
C          3.22700        0.33860       -1.15560
C          4.69280        0.19720       -1.17990
O          5.33350        0.65130       -2.11360
H          0.72130        0.54170        0.81500
H          0.55510       -1.02900       -0.06310
H          0.61780        0.51980       -0.98590
H          3.00200       -0.66510        0.68260
H          2.73380        0.85040       -1.97790
H          5.21170       -0.30950       -0.37170
