7
346	1
C         -1.10930       -0.00870       -0.00220
N         -0.34670        1.09980        0.00030
N          0.91340        0.69550        0.00020
C          0.88880       -0.64970       -0.00240
O         -0.35040       -1.07780       -0.00380
H         -2.19090       -0.01370       -0.00270
H          1.76560       -1.28310       -0.00310
