11
21	1
C          1.09620        0.11650        0.21770
C          2.57060       -0.10370       -0.11630
C          3.12260       -1.37800        0.52640
F          2.42610       -2.48450        0.07320
F          4.45570       -1.52070        0.18790
F          3.01710       -1.30500        1.90410
H          0.74130        1.04950       -0.26870
H          0.95620        0.21530        1.31510
H          0.48200       -0.73100       -0.15390
H          3.15650        0.76950        0.24380
H          2.68400       -0.17330       -1.21990
