12
310	1
C          1.52960       -0.71820       -0.51360
C          2.27600        0.14480        0.18010
C          3.18800        1.12330       -0.51560
C          2.60700        2.03610       -1.50640
N          2.85070        2.51780       -0.13880
H          0.88380       -1.41810        0.00690
H          1.56020       -0.73250       -1.59900
H          2.23560        0.13590        1.26510
H          4.28640        1.01760       -0.39610
H          1.51610        1.97140       -1.72220
H          3.32900        2.50250       -2.20780
H          1.92150        2.57030        0.34220
