9
312	1
N          0.96030        0.05920       -0.26500
C          2.10720       -0.05590       -0.16260
C          3.56660       -0.20390       -0.03120
C          4.23810       -0.90790       -1.12160
N          4.31330        0.56620       -1.04720
H          4.06460       -0.13520        0.95830
H          3.66190       -1.21390       -2.02480
H          5.24050       -1.32710       -0.89520
H          3.66470        0.95650       -1.77220
