15
34	1
C          0.93450       -0.23970        0.06210
C          2.44650        0.01100        0.02910
C          2.85410        0.83720        1.26160
F          3.09510       -1.21010        0.10130
C          2.80660        0.65000       -1.30490
C          3.40490        1.84230       -1.44560
H          0.64800       -0.75870        1.00190
H          0.62980       -0.88300       -0.79150
H          0.37710        0.72020        0.00060
H          2.57940        0.29660        2.19270
H          2.34080        1.82300        1.26760
H          3.95380        0.99450        1.27470
H          2.56080        0.09750       -2.20780
H          3.68290        2.45590       -0.59750
H          3.62310        2.21650       -2.44060
