12
19	1
C          1.00880       -0.02540        0.11470
C          2.53580       -0.04470        0.10660
F          3.00430        1.09690        0.73450
F          2.97770       -1.15510        0.80550
C          3.07400       -0.09830       -1.32730
O          4.47540       -0.14510       -1.32510
H          0.63940        0.01300        1.16130
H          0.60730       -0.94110       -0.36960
H          0.63030        0.86720       -0.42790
H          2.71730        0.77650       -1.91880
H          2.69680       -1.01070       -1.83700
H          4.79330        0.78830       -1.21030
