11
316	1
N          2.00840       -0.03350        0.96060
C          2.04850        0.39320       -0.24720
N          3.16610        1.15070       -0.69130
C          3.72390        0.94330       -1.97420
C          2.99500        2.28720       -1.51550
H          1.20380       -0.58330        1.29430
H          1.22660        0.17370       -0.92650
H          3.14670        0.16760       -2.52420
H          4.81980        0.83090       -1.84340
H          1.91750        2.43360       -1.75020
H          3.58160        3.11350       -1.06380
