13
297	1
C          1.30160       -0.16620        0.00510
O          2.69460        0.00840        0.08910
C          2.96910        0.67370        1.29720
C          4.35280        1.29290        1.17410
C          3.13070        2.18710        1.20640
H          1.07280       -0.69550       -0.94260
H          0.76970        0.81100       -0.03080
H          0.92410       -0.80510        0.83510
H          3.05740        0.04690        2.21110
H          4.80110        1.47420        0.17350
H          4.91740        1.56210        2.09220
H          2.64340        2.49130        0.25500
H          2.73870        2.55630        2.17770
