19
2	1
C          0.92530       -0.06520        0.00270
C          2.46690       -0.05940       -0.04570
C          2.92550       -0.91940       -1.24280
C          2.95640        1.39030       -0.23960
C          3.00270       -0.63470        1.29570
N          4.46340       -0.63870        1.36770
H          0.49920        0.34300       -0.93960
H          0.55550        0.55670        0.84670
H          0.54050       -1.09950        0.13800
H          2.49170       -0.53190       -2.18990
H          2.59740       -1.97350       -1.11570
H          4.02910       -0.90390       -1.35740
H          2.54940        1.81840       -1.18150
H          4.06530        1.43050       -0.29610
H          2.62630        2.03220        0.60550
H          2.62610       -1.67190        1.44480
H          2.61450       -0.01360        2.13470
H          4.84920       -1.33170        0.68900
H          4.74180       -0.96950        2.31960
