11
318	1
C          2.48430        0.60810       -0.17060
N          3.22440       -0.29540        0.36070
N          2.94360       -0.77740        1.61720
C          3.04800       -2.15210        1.90140
C          3.97490       -1.01010        2.54660
H          2.71590        0.98030       -1.16210
H          1.62540        1.00610        0.36290
H          3.40200       -2.69190        0.99640
H          2.10570       -2.45790        2.39990
H          4.95570       -0.77750        2.07800
H          3.67990       -0.51810        3.49580
