13
18	1
C          0.89430        0.04510        0.01180
C          2.42220        0.04860       -0.01470
F          2.88030        1.13000        0.71900
F          2.88320       -1.11870        0.57010
C          2.94410        0.14230       -1.45560
N          4.40340        0.11370       -1.48170
H          0.53670       -0.01700        1.06150
H          0.49920       -0.82970       -0.54770
H          0.49490        0.97640       -0.44370
H          2.58180        1.08100       -1.93110
H          2.55960       -0.72050       -2.04280
H          4.77710        0.96740       -1.00960
H          4.71620        0.14460       -2.47790
