18
6	1
C          0.99050        0.06570        0.07720
C          2.53000        0.11460        0.04060
C          2.96640        1.32930       -0.80770
N          3.02930        0.25490        1.41500
C          3.04860       -1.21590       -0.56900
N          4.50910       -1.29470       -0.58390
H          0.57780        0.99830        0.51890
H          0.64250       -0.78990        0.69510
H          0.57390       -0.04860       -0.94760
H          2.54940        2.26840       -0.38360
H          2.60100        1.22770       -1.85280
H          4.07020        1.43810       -0.82570
H          2.68750        1.15060        1.83400
H          4.07430        0.28080        1.42500
H          2.66040       -1.34430       -1.60530
H          2.66350       -2.06170        0.04320
H          4.89410       -0.61110       -1.27300
H          4.78410       -2.24690       -0.91670
