13
112	1
C          0.86550        0.01100        0.09330
C          2.38050       -0.12310       -0.05400
F          2.66840       -1.37610       -0.57590
C          2.94550        0.95700       -0.97910
C          4.41550        0.97050       -0.94570
C          5.62160        0.98620       -0.92240
H          0.48190       -0.79530        0.75340
H          0.37110       -0.07850       -0.89660
H          0.59790        0.99300        0.54620
H          2.83840       -0.04310        0.96050
H          2.58980        1.96330       -0.66360
H          2.60000        0.77320       -2.02070
H          6.68100        0.99840       -0.90040
