12
132	1
O          1.08850        0.11790       -0.18590
C          2.47480       -0.06180       -0.10820
C          3.04870        0.88430        0.94990
C          4.54250        0.76540        1.10880
O          5.17360        1.54580        2.01110
O          5.18580       -0.02580        0.43320
H          0.76770       -0.51420       -0.88050
H          2.93680        0.17020       -1.09440
H          2.69900       -1.11310        0.18210
H          2.57210        0.66240        1.92900
H          2.80740        1.93150        0.66670
H          6.13180        1.49230        2.13600
