16
109	1
C          0.89620       -0.26270       -0.01220
C          2.38640        0.07510        0.04940
C          2.57740        1.59140       -0.03590
C          2.99250       -0.50980        1.33240
C          4.44990       -0.43260        1.33820
C          5.64920       -0.36500        1.34260
H          0.44600        0.12690       -0.94150
H          0.35190        0.17000        0.84330
H          0.74240       -1.35690       -0.00060
H          2.87430       -0.38750       -0.83000
H          2.11730        2.09900        0.82930
H          2.10800        1.98840       -0.95340
H          3.64550        1.85970       -0.06690
H          2.71390       -1.57140        1.42760
H          2.59500        0.01070        2.21830
H          6.70080       -0.31050        1.34680
