16
117	1
C          0.89270        0.02900       -0.02840
C          2.38160       -0.17640        0.09810
C          2.86070       -1.20670        0.81430
C          3.33310        0.77380       -0.60060
C          3.19750        2.21490       -0.09880
O          3.52060        2.30110        1.26340
H          0.31650       -0.75030        0.51520
H          0.60470       -0.01010       -1.09960
H          0.60440        1.01510        0.38880
H          2.18940       -1.89800        1.31460
H          3.92980       -1.37030        0.90940
H          3.12280        0.74730       -1.69120
H          4.38970        0.45800       -0.45370
H          2.17950        2.62210       -0.29270
H          3.90220        2.86070       -0.66410
H          2.69290        2.09050        1.76920
