19
81	1
C          2.57070       -0.47900        1.63840
C          2.28610       -0.27430        0.15170
C          3.11650        0.87670       -0.44280
N          4.57530        0.68170       -0.28250
C          5.07740       -0.44490       -1.08900
C          5.28720        1.91280       -0.66280
H          1.93480       -1.30160        2.02790
H          2.34250        0.44770        2.20640
H          3.63520       -0.75230        1.79770
H          1.20840       -0.03320        0.02490
H          2.47590       -1.22070       -0.39420
H          2.80720        1.80480        0.08950
H          2.85330        1.00430       -1.51750
H          4.65850       -1.40540       -0.72880
H          6.17990       -0.53550       -0.97990
H          4.83180       -0.31290       -2.16610
H          4.95880        2.76110       -0.02460
H          5.10460        2.17080       -1.73020
H          6.38020        1.79190       -0.50160
