9
39	1
C          0.93990       -0.04080       -0.07280
C          2.46470       -0.03530       -0.08150
F          2.93140        0.56480        1.07360
F          2.93140       -1.33580       -0.13670
C          2.96860        0.70480       -1.24370
N          3.36990        1.28790       -2.15940
H          0.57330       -0.60400        0.81150
H          0.54780       -0.52920       -0.99100
H          0.54780        0.99780       -0.01860
