12
95	1
F          0.75920       -0.00090        0.00770
C          2.13590        0.12790        0.02720
F          2.51450        0.72030        1.21940
C          2.77930       -1.24980       -0.11020
C          4.28140       -1.14190       -0.09460
C          5.02540       -1.55500       -1.12520
H          2.44570        0.77860       -0.81850
H          2.42350       -1.71590       -1.05560
H          2.45800       -1.89360        0.73610
H          4.77260       -0.71960        0.77730
H          4.56670       -1.98260       -2.01150
H          6.10600       -1.46460       -1.08300
