17
58	1
C          3.55660        1.72670        0.16250
C          2.90740        0.34940       -0.05520
O          3.19740       -0.16770       -1.33150
C          3.24790       -0.66830        1.05740
C          4.73680       -1.02970        1.20210
N          5.25220       -1.68600        0.00490
H          3.21300        2.42950       -0.62580
H          4.66330        1.66520        0.11250
H          3.26290        2.13670        1.15220
H          1.80880        0.51530       -0.01490
H          4.14970        0.01730       -1.53950
H          2.66880       -1.60060        0.87890
H          2.90590       -0.24490        2.02720
H          4.85120       -1.71830        2.06870
H          5.33480       -0.11980        1.41780
H          4.74190       -2.58760       -0.13910
H          6.26160       -1.91150        0.15810
