18
82	1
C          1.00960       -0.28040        0.84190
N          2.17460       -0.10040       -0.04340
C          3.11930       -1.21000        0.16480
C          1.78920       -0.03850       -1.47110
C          0.98410        1.22430       -1.80840
N          0.69230        1.26530       -3.23800
H          1.34040       -0.39280        1.89730
H          0.41740       -1.17720        0.55370
H          0.35970        0.61690        0.82680
H          3.44620       -1.24500        1.22650
H          4.03330       -1.05990       -0.44950
H          2.65800       -2.18710       -0.10390
H          1.21060       -0.94360       -1.76570
H          2.71300       -0.00420       -2.09260
H          1.56570        2.12750       -1.51780
H          0.01970        1.22710       -1.26050
H          1.58850        1.33240       -3.77330
H          0.13570        2.12720       -3.43950
