19
53	1
C          1.26090        0.05160        0.29960
C          2.77730        0.13910        0.44650
C          3.48740       -0.58890       -0.70390
C          5.02050       -0.52630       -0.56490
C          5.69430       -1.33030       -1.68520
N          5.48070        0.86450       -0.58690
H          0.77390        0.58190        1.14490
H          0.93210       -1.00940        0.30860
H          0.93770        0.52600       -0.65150
H          3.07110       -0.32060        1.41530
H          3.07050        1.21100        0.45720
H          3.18280       -0.13710       -1.67420
H          3.16890       -1.65500       -0.69800
H          5.30770       -0.98360        0.40840
H          5.43410       -0.91040       -2.68060
H          5.36650       -2.39100       -1.64680
H          6.79790       -1.30330       -1.56340
H          5.26000        1.30280       -1.51140
H          6.51610        0.89480       -0.44270
