15
44	1
C          0.94950        0.09750       -0.02330
C          2.48700        0.10230       -0.02610
C          3.01280        1.36400       -0.74300
N          2.97980        0.06600        1.35050
C          2.97380       -1.09430       -0.73240
C          3.37530       -2.07230       -1.30970
H          0.56740        0.99460        0.51100
H          0.56400       -0.80870        0.49560
H          0.55050        0.10700       -1.06190
H          2.65600        2.27720       -0.21750
H          2.65620        1.40100       -1.79640
H          4.12730        1.38020       -0.74940
H          2.67070        0.93180        1.85020
H          4.02870        0.05990        1.34780
H          3.73550       -2.93380       -1.80240
