13
131	1
N          1.00410        0.07490        0.12330
C          2.46230        0.12650        0.08970
C          3.03510       -1.24750       -0.28350
C          4.54050       -1.26780       -0.34790
O          5.17120       -2.41810       -0.66520
O          5.19360       -0.25980       -0.11620
H          0.64400        1.02770        0.36020
H          0.70050       -0.57590        0.88400
H          2.84640        0.44120        1.08610
H          2.77860        0.87580       -0.66900
H          2.63730       -1.54730       -1.27700
H          2.70910       -1.99550        0.47080
H          6.13680       -2.46340       -0.71290
