10
38	1
C          0.99370       -0.03700       -0.06010
C          2.51880       -0.11140       -0.05880
F          3.04000        1.12170        0.29130
F          2.92440       -1.04940        0.87430
C          3.03900       -0.50300       -1.41120
O          2.81860        0.19870       -2.38600
H          0.63140        0.24780        0.95030
H          0.55980       -1.02420       -0.32800
H          0.64080        0.72400       -0.78880
H          3.62220       -1.41110       -1.52700
