18
80	1
C          0.79980       -0.89710        1.53820
C          2.25620       -1.22610        1.24870
O          3.06460       -0.15000        1.67660
C          4.44010       -0.46570        1.54200
C          5.17620        0.78050        1.05190
C          4.99780       -0.92110        2.89300
H          0.15110       -1.73370        1.20280
H          0.50380        0.02710        0.99790
H          0.65430       -0.74320        2.62860
H          2.36390       -1.37910        0.15110
H          2.50860       -2.16090        1.79890
H          4.63220       -1.26480        0.78450
H          5.04520        1.61810        1.77030
H          4.77150        1.09150        0.06540
H          6.26100        0.56950        0.93680
H          4.85610       -0.12850        3.65870
H          6.08140       -1.14970        2.80540
H          4.47450       -1.83940        3.23220
