15
139	1
C          3.24280       -1.00870       -1.00840
N          2.93480       -0.31340        0.24430
C          3.27370        1.11800        0.20120
C          4.75960        1.39540        0.27980
C          5.24680        2.81160        0.25070
O          5.56600        0.48230        0.37830
H          2.90620       -2.06380       -0.93230
H          4.33240       -1.00610       -1.21820
H          2.70110       -0.53700       -1.85600
H          3.40820       -0.78260        1.05150
H          2.79050        1.61540        1.06880
H          2.85480        1.57790       -0.72070
H          4.93320        3.29430       -0.69830
H          6.35500        2.84840        0.32140
H          4.81550        3.37250        1.10600
