11
189	3
C          1.03370       -0.06470        0.10010
C          2.52910        0.03540        0.05460
O          3.20570       -0.89270        0.47780
N          3.11770        1.15370       -0.45530
C          4.46730        1.29910       -0.52150
O          4.94930        2.31970       -0.98680
H          0.71650       -1.03360        0.54190
H          0.62360        0.01020       -0.92870
H          0.62350        0.76120        0.71830
H          2.51780        1.91800       -0.80380
H          5.13270        0.51770       -0.16520
