11
180	1
F          3.00220        1.52890       -0.65920
C          2.75790        0.43030        0.10440
C          2.16820        0.57900        1.29520
C          3.15250       -0.92720       -0.41030
C          4.63020       -0.97020       -0.65260
O          5.32800       -1.78420       -0.06910
H          1.89150        1.56880        1.64390
H          1.95840       -0.27820        1.92770
H          2.62300       -1.11810       -1.36700
H          2.86780       -1.72750        0.30900
H          5.08560       -0.27720       -1.35310
