12
173	1
N          0.86470       -0.21860        0.10930
C          2.23430        0.01340       -0.19180
N          2.66680       -0.14600       -1.39250
C          3.19410        0.42650        0.89390
C          2.83080        1.76090        1.47740
O          1.76260        1.92410        2.04530
H          0.20680       -0.50460       -0.63050
H          0.51740       -0.12350        1.07400
H          2.03600       -0.43480       -2.15460
H          4.22150        0.50270        0.47480
H          3.20240       -0.34390        1.69380
H          3.53130        2.58700        1.40950
