12
198	1
N          0.94770        0.00070        0.00340
C          2.36760       -0.06330        0.06290
N          2.95710       -0.22500        1.19400
N          3.14760        0.05010       -1.12060
N          2.54260        0.22380       -2.34530
C          3.23380        0.32770       -3.42400
H          0.38460       -0.08180        0.86250
H          0.46220        0.12990       -0.89530
H          2.42090       -0.31060        2.07000
H          4.17700        0.00060       -1.05140
H          2.73000        0.46380       -4.37440
H          4.31900        0.28130       -3.39970
