12
170	1
C          0.81910        0.08100       -0.09830
C          2.31290        0.05700        0.01300
O          2.88730        0.94460        0.62810
C          3.08860       -1.06180       -0.63670
C          4.56980       -0.93990       -0.41720
O          5.32840       -0.83660       -1.36780
H          0.39910        0.96360        0.43000
H          0.39630       -0.84050        0.35370
H          0.52530        0.13140       -1.16760
H          2.87020       -1.05840       -1.72680
H          2.75010       -2.03010       -0.21140
H          4.97060       -0.94790        0.59150
