13
187	2
C          1.11930       -0.03690       -0.23310
C          2.61600       -0.07540       -0.15170
O          3.26240       -0.42670       -1.12910
N          3.24120        0.27910        1.00380
C          4.66160        0.25890        1.13080
C          5.24850        0.61230        2.27730
H          0.77100       -0.35410       -1.23940
H          0.76200        0.99640       -0.04060
H          0.68690       -0.72080        0.52680
H          2.66850        0.57100        1.81140
H          5.28560       -0.04480        0.29450
H          4.65630        0.92120        3.13320
H          6.33020        0.59290        2.36170
