14
225	1
C          0.96690       -0.00280       -0.02150
C          2.49610       -0.00150       -0.11970
N          3.08730       -0.80890        0.94760
C          2.92780       -0.54200       -1.45480
N          3.60460        0.19140       -2.26300
O          3.98400       -0.28020       -3.43090
H          0.64800        0.41100        0.95870
H          0.56690       -1.03510       -0.12020
H          0.53190        0.62880       -0.82550
H          2.85420        1.04720       -0.01150
H          2.73010       -1.79160        0.89890
H          2.82400       -0.40690        1.87680
H          2.66390       -1.56010       -1.73220
H          4.49460        0.27610       -4.03410
