13
227	1
C          1.03570       -0.05030       -0.17180
C          2.55770        0.02990       -0.03310
O          3.18460       -0.28740       -1.24970
C          2.98260        1.39720        0.43170
N          3.60340        1.53910        1.54680
O          3.97520        2.73330        1.95440
H          0.74090       -1.07030       -0.49770
H          0.67010        0.68420       -0.92140
H          0.55090        0.16280        0.80510
H          2.86990       -0.72760        0.71940
H          2.88670        0.37540       -1.92750
H          2.76020        2.26570       -0.18380
H          4.44210        2.83360        2.79480
