16
297	1
C          1.01750        0.02040       -0.00460
C          2.50680       -0.20020       -0.08850
C          3.00260       -1.06400       -1.22660
C          3.31390        0.37370        0.84000
C          4.79470        0.24710        0.88560
C          5.49420        0.85570        1.84760
H          0.50400       -0.95750        0.10780
H          0.66240        0.50860       -0.93630
H          0.72760        0.66320        0.85420
H          2.53570       -2.06820       -1.14910
H          4.09350       -1.21360       -1.26920
H          2.69530       -0.60550       -2.18980
H          2.85100        0.97700        1.61770
H          5.34350       -0.33020        0.15570
H          4.99930        1.45040        2.60990
H          6.57490        0.75970        1.87540
