18
280	1
C          2.06770       -1.01070        1.17180
C          2.73160       -0.33170       -0.02100
C          3.19700        1.05500        0.36620
C          4.47300        1.52110        0.32750
C          5.67070        0.71010       -0.11580
C          4.74430        2.94260        0.75240
H          1.69190       -2.01140        0.87070
H          1.20990       -0.40590        1.53660
H          2.80120       -1.13860        1.99660
H          1.98720       -0.23080       -0.83920
H          3.52640       -0.99990       -0.38790
H          2.41570        1.73100        0.70510
H          5.46920       -0.32800       -0.42070
H          6.40380        0.66620        0.71670
H          6.14990        1.21670       -0.97950
H          3.82350        3.48000        1.06560
H          5.19860        3.50150       -0.09260
H          5.45220        2.94500        1.60760
