10
268	1
O          0.91240       -0.06920        0.09850
N          2.22040       -0.20070        0.05080
C          2.86960        0.13070       -1.00790
C          4.34110       -0.00950       -1.08200
F          4.97530        0.35670       -2.22680
C          5.06480       -0.48400       -0.06020
H          0.43020       -0.32030        0.89760
H          2.33660        0.52230       -1.87030
H          4.59730       -0.78750        0.87140
H          6.14250       -0.57110       -0.15490
