15
270	1
C          0.89000       -0.07770       -0.02280
C          2.35320       -0.08020       -0.02500
C          3.55930       -0.07360       -0.02310
C          5.02920       -0.05480       -0.01640
C          5.55130        0.81270       -1.16630
N          5.50600        0.44010        1.27490
H          0.51400       -1.03150       -0.44700
H          0.52130        0.77010       -0.63610
H          0.52290        0.03400        1.01810
H          5.39090       -1.09610       -0.15890
H          5.20130        1.86220       -1.05850
H          5.19380        0.41370       -2.14000
H          6.66190        0.80650       -1.17440
H          5.19850        1.42910        1.42050
H          6.55040        0.41060        1.29730
