12
261	1
N          0.89380        0.08460        0.03330
N          2.26700        0.09730        0.10320
C          2.94530       -0.99630        0.15070
C          4.42680       -0.97330        0.22600
N          5.14010       -2.19700        0.27680
N          5.07770        0.13790        0.24620
H          0.37760        0.97450       -0.00350
H          0.36910       -0.80340        0.01690
H          2.43470       -1.95600        0.13590
H          4.63760       -3.09630        0.26170
H          6.16930       -2.19780        0.32940
H          4.60320        1.05200        0.21130
