9
255	1
O          3.18790       -1.20980        0.07210
C          2.48490       -0.05870        0.15250
O          1.26540       -0.08480        0.08850
C          3.17730        1.23600        0.31760
C          4.50980        1.32020        0.39320
F          5.10420        2.53220        0.54500
H          2.74230       -2.06210       -0.03600
H          2.58570        2.14500        0.37930
H          5.13140        0.43200        0.33510
