14
311	1
C          0.84770        0.09640        0.00720
C          2.35130        0.03060        0.07010
C          3.02080       -0.94980        1.00660
C          3.07390        0.85480       -0.71720
C          4.47990        0.85480       -0.71720
C          5.67000        0.85480       -0.71720
H          0.37490       -0.62970        0.70080
H          0.50480       -0.13410       -1.02370
H          0.50480        1.11570        0.28470
H          2.27730       -1.54560        1.57570
H          3.65480       -0.40220        1.73570
H          3.65480       -1.65300        0.42620
H          2.56450        1.54860       -1.38000
H          6.72830        0.85440       -0.71680
