13
322	1
C          0.97520       -0.05550       -0.07060
C          2.50870       -0.10690       -0.07070
N          3.00290       -0.83570        1.09930
C          3.04090       -0.74940       -1.35900
F          4.42430       -0.74000       -1.35260
F          2.59850       -2.05570       -1.47810
H          0.61170        0.44750        0.85050
H          0.54560       -1.07930       -0.10940
H          0.61030        0.52030       -0.94790
H          2.89160        0.93720       -0.02590
H          2.62830       -1.81210        1.10380
H          2.68320       -0.35530        1.97120
H          2.69010       -0.17180       -2.24180
