17
281	1
C          0.96820        0.08330       -0.18640
C          2.46220        0.21700       -0.03020
C          2.95550        1.43890        0.71300
C          3.26720       -0.74560       -0.55100
C          4.77720       -0.78260       -0.49610
N          5.20730       -1.99810        0.18480
H          0.57390        0.96070       -0.74070
H          0.49280        0.04760        0.81630
H          0.67530       -0.83450       -0.73990
H          2.52030        1.43890        1.73430
H          2.60650        2.34950        0.18260
H          4.04630        1.52870        0.82890
H          2.80040       -1.58310       -1.06330
H          5.25220        0.08540       -0.00850
H          5.15120       -0.80440       -1.54200
H          4.91030       -1.94950        1.18690
H          6.25210       -2.04150        0.16360
