13
286	1
C          0.86560        0.12760        0.00610
C          2.36270        0.22630       -0.03020
F          2.96370        1.23620        0.65550
C          3.09890       -0.66070       -0.72240
C          4.60120       -0.58690       -0.77690
O          5.15550       -1.77560       -0.28570
H          0.53270        0.00510        1.05760
H          0.48710       -0.73250       -0.58720
H          0.42770        1.06050       -0.40550
H          2.60800       -1.46340       -1.26600
H          5.01690        0.28350       -0.22080
H          4.91020       -0.46530       -1.83580
H          5.08060       -1.73520        0.70370
