18
319	1
C          0.85990       -0.04210        0.05710
C          2.39440       -0.00480       -0.00780
N          2.93490       -1.35330       -0.20870
C          2.89100        0.97730       -1.10150
C          4.41880        1.13100       -1.06470
N          2.44590        0.56600       -2.43740
H          0.53080       -0.71310        0.87890
H          0.43030       -0.41260       -0.89740
H          0.46140        0.97490        0.25970
H          2.75730        0.37330        0.97440
H          2.51470       -1.79450       -1.05810
H          2.68670       -1.95110        0.61300
H          2.45290        1.97680       -0.88090
H          4.92130        0.16400       -1.27820
H          4.74250        1.49110       -0.06490
H          4.74410        1.87510       -1.82280
H          2.93750       -0.30680       -2.73530
H          2.68590        1.31480       -3.12710
