10
265	1
N          0.96040       -0.09020       -0.06830
N          2.33530       -0.10380       -0.05270
C          2.98780       -0.94860        0.66680
C          4.46010       -0.94550        0.66860
O          5.12760       -1.83830        1.42900
O          5.07700       -0.14020       -0.01360
H          0.46450        0.59670       -0.65320
H          0.41440       -0.75810        0.49730
H          2.45960       -1.67360        1.28100
H          6.09510       -1.85600        1.44690
