11
289	1
N          0.96420       -0.05830       -0.12990
C          2.38410        0.00940        0.19620
C          2.76920        1.43010        0.51730
C          3.28300        1.78680        1.70190
F          3.48400        0.87040        2.68630
F          3.61110        3.08510        1.92850
H          0.71940       -1.05230       -0.34060
H          0.78330        0.50160       -0.99480
H          2.98520       -0.33840       -0.67200
H          2.58950       -0.67220        1.05000
H          2.62530        2.19110       -0.24450
