14
310	1
C          0.75430        0.07620        0.07170
C          2.23220       -0.09490       -0.11800
C          2.74870       -0.71340       -1.39210
N          3.03740        0.29080        0.81380
N          4.39990        0.15670        0.69000
C          5.18000        0.54760        1.63050
H          0.25580       -0.91470        0.02730
H          0.34830        0.72580       -0.73180
H          0.53020        0.54360        1.05460
H          1.91070       -0.98000       -2.07050
H          3.31920       -1.63670       -1.15790
H          3.41180        0.00550       -1.91770
H          6.25310        0.43670        1.52150
H          4.77750        0.98980        2.53770
