8
328	1
F          0.93930       -0.14890       -0.02840
C          2.32080       -0.08800       -0.05090
F          2.83690       -1.21050        0.57110
C          2.81160       -0.01840       -1.49030
F          4.19260        0.05310       -1.51240
F          2.40200       -1.14250       -2.18450
H          2.65140        0.81700        0.50120
H          2.39530        0.88480       -1.98420
