19
329	1
C          0.91750        0.21000       -0.02970
C          2.43020        0.01660        0.14690
C          2.81860        0.14620        1.63300
N          2.87980       -1.25440       -0.48580
C          4.33420       -1.27890       -0.71660
C          2.45220       -2.48440        0.20670
H          0.61500        1.20910        0.35080
H          0.33430       -0.55250        0.52500
H          0.65320        0.15480       -1.10710
H          2.90410        0.86450       -0.39780
H          2.32390       -0.63110        2.25130
H          2.50040        1.13820        2.01890
H          3.91680        0.07430        1.76590
H          4.65190       -0.38420       -1.29340
H          4.60830       -2.16870       -1.32340
H          4.89900       -1.31890        0.23890
H          1.35210       -2.51590        0.32910
H          2.94120       -2.58560        1.19920
H          2.72480       -3.37330       -0.40200
