14
318	1
C          1.04560        0.05910        0.03460
C          2.57870        0.10340        0.02980
C          3.09670        0.44660       -1.37350
C          3.09500        1.10800        1.07370
F          4.47840        1.09510        1.10830
F          2.66150        2.39040        0.78280
H          0.68210       -0.69790       -0.69280
H          0.61950        1.04820       -0.23910
H          0.67350       -0.22420        1.04230
H          2.95480       -0.90710        0.30380
H          2.73960        1.44920       -1.69300
H          2.74040       -0.30760       -2.10730
H          4.20720        0.44100       -1.38820
H          2.72190        0.82620        2.08140
