17
320	1
C          0.91800        0.15010       -0.11960
C          2.44640       -0.00030       -0.11780
N          3.08520        1.25740        0.28060
C          2.89710       -1.16150        0.80030
C          4.40830       -1.38810        0.71890
O          2.54980       -0.90450        2.13810
H          0.61640        0.95710       -0.82050
H          0.54200        0.40570        0.89360
H          0.44100       -0.79590       -0.45250
H          2.76060       -0.24190       -1.15780
H          2.76010        1.54490        1.23240
H          2.82770        2.01170       -0.39680
H          2.41750       -2.10740        0.45050
H          4.96200       -0.48920        1.06390
H          4.70770       -1.61820       -0.32590
H          4.69470       -2.24630        1.36330
H          1.66250       -1.31980        2.29710
