13
368	1
C          0.83210        0.01370        0.18040
N          2.26810       -0.14040        0.05130
O          2.89740       -1.00270        0.86750
C          2.99730        0.55320       -0.87660
C          2.37470        1.53860       -1.83710
O          4.20520        0.37640       -0.94060
H          0.44680       -0.64380        0.98880
H          0.32900       -0.27570       -0.76670
H          0.58170        1.06360        0.44290
H          3.12340       -0.47510        1.67680
H          1.27970        1.65150       -1.72590
H          2.57680        1.20970       -2.87800
H          2.83490        2.53710       -1.68340
