14
367	1
C          1.05510        0.34890       -0.23680
N          2.46090        0.04130       -0.06660
O          3.19700        0.81320        0.74930
C          3.08730       -1.05200       -0.75420
C          4.55040       -1.31760       -0.54720
N          2.42330       -1.81820       -1.55110
H          0.77710        1.23170        0.37760
H          0.43520       -0.51220        0.09090
H          0.84360        0.58540       -1.30110
H          3.11290        0.39470        1.64460
H          4.74310       -1.52700        0.52570
H          5.13780       -0.42850       -0.85810
H          4.88650       -2.19200       -1.14520
H          1.41950       -1.69440       -1.73930
