11
383	2
N          0.93940        0.00540        0.25470
C          2.33170        0.04520       -0.03360
N          2.93540       -1.02120       -0.42540
C          3.09040        1.31550        0.11680
N          4.41770        1.37260       -0.15340
O          2.51040        2.32440        0.48940
H          0.40880       -0.87200        0.15220
H          0.44260        0.85110        0.56930
H          2.43040       -1.91270       -0.53670
H          4.93390        0.53890       -0.46920
H          4.93110        2.25990       -0.04480
