13
429	1
C          1.09770        0.07800        0.01800
C          2.60890       -0.13720        0.05830
F          3.23090       -0.20390        1.29470
C          3.31540       -0.80650       -1.09880
C          3.36880        0.72520       -0.93150
O          4.66780        1.07730       -0.55350
H          0.59400       -0.78470        0.50110
H          0.72000        0.17380       -1.02300
H          0.84170        1.00220        0.57700
H          2.53270       -1.25320       -1.74890
H          4.12400       -1.43010       -0.65980
H          2.99750        1.11970       -1.90140
H          4.55880        1.86390        0.03970
