10
380	1
C          0.99450       -0.05620       -0.23340
C          2.43290        0.10070        0.15950
O          2.86250       -0.49790        1.13440
C          3.33170        0.97300       -0.62390
O          2.86050        1.63600       -1.70190
O          4.50310        1.09570       -0.29700
H          0.46990       -0.74520        0.46270
H          0.93040       -0.47120       -1.26110
H          0.48900        0.93180       -0.20500
H          3.43530        2.21150       -2.22630
