15
337	1
C          0.95370       -0.05960       -0.09480
C          2.47140       -0.07170        0.14400
N          2.92480        1.26680        0.53650
C          2.84960       -1.13880        1.16930
N          2.54730       -2.49880        0.89840
N          3.45670       -0.84640        2.26890
H          0.69690        0.69580       -0.86750
H          0.41460        0.19210        0.84360
H          0.59780       -1.04640       -0.45600
H          2.97660       -0.33860       -0.81030
H          2.38530        1.60190        1.36860
H          2.75160        1.93670       -0.24820
H          2.09260       -2.77150        0.01570
H          2.79960       -3.23200        1.57720
H          3.71980        0.11320        2.53010
