10
384	1
N          1.09400       -0.10640        0.09100
C          2.50640       -0.00280       -0.03730
N          3.10300       -0.53620       -1.04360
C          3.30110        0.71690        0.98140
O          4.64200        0.80890        0.84840
O          2.74880        1.22910        1.94370
H          0.53970       -0.60770       -0.61850
H          0.60630        0.31740        0.89330
H          2.57720       -1.04420       -1.77010
H          5.17930        1.27560        1.50420
