18
392	1
C          0.92140       -0.16230       -0.05070
C          2.43500       -0.13100       -0.04540
C          3.16420       -1.43870       -0.26870
C          3.12060        1.03950        0.15450
C          2.41510        2.36160        0.38020
C          4.63480        1.09830        0.16450
H          0.52600       -1.18440       -0.22530
H          0.53050        0.48740       -0.86210
H          0.53050        0.18130        0.93020
H          2.46400       -2.28730       -0.41360
H          3.79600       -1.67710        0.61290
H          3.79600       -1.37110       -1.17940
H          1.31010        2.30970        0.37140
H          2.71910        3.07700       -0.41230
H          2.71910        2.77350        1.36530
H          5.14170        0.12910       -0.00100
H          4.97800        1.48790        1.14580
H          4.97800        1.79150       -0.63180
