14
338	2
C          0.81570       -0.00560        0.20690
C          2.33630       -0.01710        0.00660
N          3.02960       -0.18790        1.28480
C          2.73630       -1.12130       -0.94640
N          3.34320       -0.83080       -2.12140
O          2.50920       -2.28700       -0.65540
H          0.52740        0.82330        0.88760
H          0.46710       -0.96480        0.64620
H          0.30560        0.14940       -0.76800
H          2.63050        0.96660       -0.42160
H          2.72960       -1.07880        1.74500
H          2.78940        0.60660        1.92160
H          3.54090        0.14500       -2.38630
H          3.61270       -1.58680       -2.76830
