18
415	1
C          1.08490        0.16620       -0.13110
C          2.61620        0.15720       -0.05000
C          3.37350       -0.54780       -1.20470
C          3.41630        0.97150       -1.04880
C          2.73330        1.75720       -2.17800
C          4.76650        1.51250       -0.56450
H          0.69710       -0.70310        0.43900
H          0.68550        0.08630       -1.16070
H          0.69960        1.09510        0.33800
H          3.09750        0.15670        0.95240
H          2.63080       -0.98040       -1.90860
H          4.12550       -1.19540       -0.70550
H          1.83120        1.26130       -2.58430
H          3.44500        1.87720       -3.02160
H          2.45180        2.76450       -1.80660
H          5.22550        0.86530        0.21390
H          4.62480        2.52760       -0.13850
H          5.47080        1.57810       -1.42030
