17
416	1
C          0.85940        0.09820       -0.34470
C          2.37090        0.13480       -0.08790
C          2.81050        0.15420        1.38470
C          3.14930       -0.83170       -0.95510
C          3.25180        0.70400       -1.19920
N          4.45370        1.38070       -0.69960
H          0.41400       -0.78150        0.16570
H          0.61830        0.03330       -1.42800
H          0.39580        1.02110        0.06210
H          2.33700       -0.69490        1.92070
H          2.47570        1.10180        1.85550
H          3.90640        0.05930        1.51950
H          2.70810       -1.23200       -1.89230
H          4.14120       -1.19630       -0.61530
H          2.59310        1.29390       -1.87170
H          5.12710        0.74680       -0.21470
H          4.18080        2.17280       -0.07450
