16
491	1
C          1.61010        0.65760        0.24420
C          3.07250        0.25010        0.08470
C          3.23730       -0.86010       -0.96470
F          2.78290       -0.41850       -2.19700
C          4.69890       -1.31410       -1.08800
N          5.56610       -0.21270       -1.49550
H          1.52930        1.45390        1.01370
H          0.99870       -0.21230        0.56640
H          1.20980        1.05010       -0.71440
H          3.44900       -0.10920        1.06730
H          3.66040        1.14430       -0.21580
H          2.62910       -1.73980       -0.66000
H          4.76620       -2.13610       -1.83480
H          5.04450       -1.70980       -0.10770
H          5.29670        0.10170       -2.45460
H          6.54910       -0.56430       -1.53960
