19
509	1
C          3.59670       -0.80230       -1.03640
C          2.85670       -1.46620        0.12760
N          3.20050       -0.85250        1.43200
C          2.16370       -1.20890        2.42090
C          4.54370       -1.28360        1.89300
C          5.04300       -0.46580        3.08690
H          3.25370       -1.25210       -1.99210
H          4.69260       -0.94770       -0.97850
H          3.37330        0.28540       -1.05630
H          3.05160       -2.56260        0.13670
H          1.77450       -1.31680       -0.08860
H          1.15990       -0.89360        2.06270
H          2.31650       -0.66710        3.37450
H          2.14830       -2.30490        2.61270
H          5.29400       -1.12200        1.09460
H          4.54950       -2.36750        2.14730
H          5.05710        0.61440        2.82940
H          6.07590       -0.78380        3.34280
H          4.41890       -0.62260        3.98840
