13
457	1
C          0.90070       -0.12380        0.19730
C          2.40050        0.00690       -0.06080
C          3.13250        1.17310        0.79040
C          3.76590       -0.03120        1.38940
O          4.60120       -0.19480        2.26410
N          3.15830       -0.94370        0.69420
H          0.36970        0.73250       -0.26820
H          0.68560       -0.13210        1.28740
H          0.52580       -1.06770       -0.25110
H          2.68010       -0.02240       -1.13740
H          2.52650        1.68720        1.56700
H          3.90350        1.76340        0.25170
H          3.22190       -1.97200        0.69940
