19
461	1
C          0.91110        0.10060       -0.12330
C          2.42530       -0.10890       -0.17610
C          2.97070       -0.98820        0.97420
C          2.41090       -2.42190        0.91940
C          4.51320       -1.00850        0.90740
N          5.08320       -1.76500        2.01930
H          0.60700        0.78380       -0.94400
H          0.61930        0.55940        0.84520
H          0.36440       -0.85340       -0.25990
H          2.89530        0.89690       -0.10630
H          2.70070       -0.55090       -1.15900
H          2.67240       -0.52620        1.94170
H          2.68140       -2.91230       -0.04020
H          1.30820       -2.42650        1.03020
H          2.81610       -3.02970        1.75560
H          4.90150        0.03370        0.94880
H          4.84390       -1.46350       -0.05280
H          4.81380       -1.30920        2.92080
H          6.12530       -1.73220        1.94350
