15
443	1
N          0.85570       -0.02790        0.13200
C          2.31450        0.01810        0.05410
C          3.00620        1.05920        0.93940
C          4.09700        0.01310        1.20050
O          5.07370        0.10370        0.19410
C          3.05650       -1.06130        0.84430
H          0.47600        0.84310       -0.30370
H          0.54230       -0.05570        1.12940
H          2.70150        0.06960       -0.99070
H          2.42650        1.19050        1.88390
H          3.28910        2.03800        0.49690
H          4.56760        0.00410        2.20850
H          5.60090       -0.73570        0.24380
H          2.48680       -1.30360        1.77270
H          3.38420       -1.98230        0.31670
