13
531	1
O          1.14670        0.03220       -0.04440
C          2.54540       -0.06750       -0.09280
C          2.95610       -1.48750       -0.48700
F          2.49560       -2.39230        0.45260
C          3.05880        0.91410       -1.11430
C          3.90520        1.89560       -0.78590
H          0.85990       -0.32810        0.83540
H          2.97810        0.17040        0.90850
H          4.06360       -1.56230       -0.53770
H          2.53250       -1.75270       -1.47980
H          2.73120        0.82200       -2.14610
H          4.25320        2.01790        0.23510
H          4.25480        2.58550       -1.54710
