15
468	1
C          1.17620        0.26010        0.20800
C          2.63330       -0.04560       -0.16250
C          2.86500       -1.56860       -0.14720
O          4.21490       -1.87580       -0.37920
C          2.96010        0.57070       -1.53330
F          4.29380        0.38960       -1.85260
H          0.94120       -0.14870        1.21400
H          0.47880       -0.18870       -0.53200
H          1.00860        1.35810        0.23620
H          3.28870        0.42390        0.60420
H          2.20250       -2.07330       -0.89040
H          2.59320       -1.97880        0.84900
H          4.29050       -2.17670       -1.32230
H          2.76260        1.66390       -1.51110
H          2.32980        0.11490       -2.32700
