16
514	1
C          1.08170       -0.27230        0.25520
C          2.40410        0.26620       -0.29790
C          2.69420       -0.33900       -1.68030
O          3.94180        0.08980       -2.15880
C          2.33220        1.77270       -0.39010
C          3.17000        2.55880        0.29310
H          1.12540       -1.37880        0.34500
H          0.23470       -0.00160       -0.41200
H          0.89060        0.15010        1.26510
H          3.21780       -0.04470        0.39590
H          1.88630       -0.08890       -2.40760
H          2.72140       -1.44710       -1.60400
H          3.78890        0.94400       -2.64090
H          1.58070        2.22950       -1.02850
H          3.93280        2.13590        0.93970
H          3.09290        3.63760        0.20520
