16
440	1
C          0.89360        0.05070        0.12730
C          2.41790       -0.00090        0.08750
C          3.18500        1.09730        0.82390
C          4.22140        0.02570        1.20110
O          5.18400       -0.10540        0.18570
C          3.11800       -1.01900        0.98840
H          0.53590        0.92360       -0.45770
H          0.52890        0.14330        1.17230
H          0.47860       -0.87750       -0.31810
H          2.81580       -0.09390       -0.95100
H          2.62970        1.37680        1.75080
H          3.51110        1.99620        0.25860
H          4.70470        0.06250        2.20250
H          5.72730        0.72480        0.21160
H          2.54960       -1.11620        1.94390
H          3.38490       -2.01340        0.57140
