16
482	1
C          1.26240        0.14440        0.22370
C          2.78770        0.14640        0.13940
C          3.28390        0.52190       -1.27040
O          2.82520        1.79870       -1.64180
C          4.81730        0.45430       -1.35590
O          5.24950        0.72670       -2.66190
H          0.94760       -0.14260        1.24920
H          0.83760       -0.58710       -0.49620
H          0.85720        1.15400        0.00060
H          3.15370       -0.87110        0.39910
H          3.19090        0.86470        0.88640
H          2.87200       -0.21680       -1.99290
H          3.19920        2.45260       -0.99440
H          5.16260       -0.56600       -1.08390
H          5.29110        1.15860       -0.63340
H          5.28520        1.71470       -2.75220
