17
448	1
C          1.05570        0.01110        0.10050
C          2.58010        0.06610       -0.03640
C          3.27760        1.17440        0.73700
C          4.21690        0.05340        1.16270
C          5.53370        0.03800        0.37540
N          3.31370       -0.99480        0.66890
H          0.60650        0.90350       -0.38340
H          0.75080       -0.00980        1.16850
H          0.67070       -0.90160       -0.40050
H          2.90220        0.06650       -1.10380
H          2.66500        1.46060        1.62090
H          3.68900        2.02460        0.15140
H          4.40900        0.01600        2.25980
H          5.35500        0.06440       -0.72100
H          6.10160       -0.88400        0.62040
H          6.14680        0.91950        0.65790
H          2.74590       -1.31280        1.49110
