17
472	1
C          1.03840        0.74670       -0.16730
C          2.55780        0.59650       -0.24410
C          3.02410       -0.30040       -1.41480
N          2.64610        0.25980       -2.71550
C          4.54920       -0.48210       -1.36170
O          4.97730       -1.35950       -2.36910
H          0.77400        1.36150        0.71880
H          0.55780       -0.24930       -0.06370
H          0.63850        1.25860       -1.06620
H          2.89630        0.13890        0.71130
H          3.01920        1.60470       -0.32850
H          2.55900       -1.30580       -1.30520
H          2.99180        1.24360       -2.80290
H          1.60900        0.24320       -2.83790
H          4.84170       -0.91740       -0.38220
H          5.07410        0.49780       -1.44810
H          5.08600       -0.81920       -3.19480
