13
496	1
N          3.02850       -0.95460       -0.99560
C          2.61000        0.03450       -0.00540
C          3.14150       -0.31180        1.39260
F          2.63670       -1.53590        1.79820
C          4.67000       -0.34940        1.43150
F          5.09720       -0.63400        2.71570
H          2.65570       -0.66710       -1.92930
H          2.60760       -1.88210       -0.75840
H          1.49870        0.08190        0.02640
H          2.99010        1.03580       -0.30500
H          2.78850        0.46580        2.10420
H          5.08450        0.63530        1.12730
H          5.05850       -1.13150        0.74540
