9
621	1
O          0.99160        0.04930        0.08520
C          2.42040       -0.00530        0.09990
C          2.90180        0.31490        1.42310
C          3.29850        0.57880        2.51370
C          2.90180       -1.31130       -0.28440
N          3.28540       -2.35240       -0.59080
H          0.74320        0.90420        0.47660
H          2.77270        0.74210       -0.61930
H          3.65510        0.80370        3.49340
