14
615	1
C          1.05340       -0.26830        0.15580
C          2.56110       -0.01410        0.07130
C          2.87560        0.84260       -1.14150
C          3.37820        2.08990       -1.11850
C          3.05150        0.53670        1.34190
C          3.44730        0.97430        2.39120
H          0.68850       -0.73210       -0.78480
H          0.49970        0.68140        0.32010
H          0.81840       -0.96050        0.99310
H          3.07550       -0.98760       -0.07230
H          2.66950        0.39910       -2.10710
H          3.59830        2.62210       -0.19860
H          3.56080        2.60180       -2.06010
H          3.79800        1.36610        3.30680
