14
586	1
O          1.11070       -0.33060        0.06130
C          2.41400        0.18390       -0.03610
C          2.54360        0.96770       -1.31590
C          3.42800        0.62900       -2.25900
C          2.73980        1.09210        1.12770
C          1.87350        1.36980        2.11100
H          1.06460       -1.11270       -0.54910
H          3.14520       -0.65730        0.00250
H          1.90070        1.82880       -1.47630
H          4.08420       -0.22630       -2.12980
H          3.49710        1.21310       -3.17090
H          3.72890        1.54040        1.16700
H          0.87280        0.95140        2.12530
H          2.17110        2.03020        2.91910
