9
595	1
F          0.85480       -0.42130       -0.09160
C          2.20740       -0.16270       -0.23560
C          3.00680       -1.40450        0.05250
O          2.44870       -2.45090        0.34260
C          2.45210        0.36890       -1.62200
O          3.21090       -0.19510       -2.39620
H          2.49870        0.61790        0.49790
H          4.09080       -1.37080        0.00680
H          1.94210        1.27220       -1.94020
