12
625	1
C          0.91090       -0.00960       -0.03940
C          2.43910        0.03740       -0.04530
C          2.92040        0.56710       -1.29940
C          3.31710        1.00380       -2.33310
C          2.92040        0.85860        1.04050
C          3.31710        1.53550        1.93550
H          0.53310       -0.63820       -0.85430
H          0.47370        0.98890       -0.16380
H          0.53310       -0.41900        0.90470
H          2.81010       -0.98670        0.08230
H          3.67490        1.39890       -3.25580
H          3.67490        2.14500        2.73310
