16
631	1
C          2.96650        1.01480        1.14800
C          2.46270       -0.07750        0.20790
C          2.93180       -1.45450        0.63510
C          2.03530       -2.39900        0.96440
C          4.41050       -1.77240        0.67700
O          4.98610       -1.57680       -0.58530
H          2.58680        2.00080        0.80620
H          4.07530        1.05630        1.15230
H          2.60030        0.83070        2.18060
H          2.82410        0.12770       -0.82230
H          1.35160       -0.02610        0.19270
H          0.97000       -2.19160        0.93580
H          2.35670       -3.39100        1.26690
H          4.61190       -2.81190        1.02470
H          4.91590       -1.10550        1.40460
H          4.71200       -2.35030       -1.14430
