12
601	1
C          0.95090        0.16340        0.36560
N          2.38860       -0.05850        0.21970
C          3.00040       -0.55340       -0.98820
N          2.34200       -0.84860       -2.05650
C          3.20570        0.21440        1.27870
O          2.75040        0.63670        2.33210
H          0.34760       -0.07500       -0.52210
H          0.76200        1.23210        0.60430
H          0.56040       -0.46250        1.19650
H          4.07830       -0.68960       -1.01140
H          1.32700       -0.76570       -2.16450
H          4.27830        0.05920        1.19970
