13
567	1
N          0.98040       -0.18120       -0.00280
C          2.43220       -0.05960        0.01840
C          2.93920        1.13450       -0.82690
O          4.33940        1.09240       -1.03510
C          2.87790        0.07690        1.41490
C          3.23730        0.17610        2.56050
H          0.65670       -0.24720       -0.97490
H          0.56290        0.67440        0.38010
H          2.86680       -0.98610       -0.39250
H          2.67900        2.09650       -0.36060
H          2.47060        1.11360       -1.82190
H          4.76640        1.10790       -0.15130
H          3.52580        0.27770        3.57850
