11
593	1
F          0.88830        0.28060       -0.27380
C          2.25220        0.24370       -0.03020
C          3.04340        0.75420       -1.21070
C          2.46420        1.19930       -2.33200
C          2.55220        1.06480        1.18790
O          3.69180        1.13480        1.62100
H          2.54160       -0.81060        0.16430
H          4.12800        0.75790       -1.14690
H          1.38540        1.21550       -2.44610
H          3.08010        1.55460       -3.15180
H          1.75300        1.59340        1.69760
