13
538	1
O          2.94090       -1.27500       -0.44780
C          2.40720       -0.13570        0.16930
C          2.87080        1.12530       -0.56120
F          2.26810        2.22690        0.02600
C          4.37850        1.23840       -0.53610
C          5.01680        2.27650        0.01670
H          2.60440       -2.05150        0.07050
H          2.73800       -0.08650        1.23150
H          1.29590       -0.17870        0.12640
H          2.53890        1.07490       -1.62040
H          4.96750        0.44510       -0.98740
H          4.47550        3.09490        0.47970
H          6.10140        2.30900        0.00680
