10
589	1
O          1.13940        0.23300        0.41690
C          2.41850        0.01070       -0.12270
C          3.45410       -0.13410        0.96750
O          3.13610       -0.09090        2.14600
C          2.38600       -1.17400       -1.05810
O          3.10600       -2.14480       -0.87920
H          0.86560       -0.59380        0.89590
H          2.69460        0.90120       -0.72530
H          4.49740       -0.27130        0.70130
H          1.70750       -1.16330       -1.90490
