13
549	1
C          2.22540       -0.58700       -0.94850
O          2.39240        0.12050        0.26110
C          2.87340        1.42840        0.00970
C          2.35950        2.35620        1.10750
C          4.31740        1.42840        0.00970
N          5.46840        1.42840        0.00970
H          1.93450       -1.62970       -0.70630
H          3.17590       -0.64140       -1.52480
H          1.40440       -0.14760       -1.55670
H          2.50450        1.84650       -0.95740
H          2.70310        2.00960        2.10660
H          1.24880        2.36650        1.09950
H          2.72090        3.39440        0.94120
