11
626	1
N          1.00270        0.05830        0.07500
C          2.46000        0.07410        0.06640
C          2.94130        0.34560       -1.26770
C          3.33810        0.56940       -2.36730
C          2.94130        1.09370        0.96850
C          3.33810        1.93410        1.71210
H          0.68630       -0.61370       -0.62050
H          0.67540        0.96870       -0.24340
H          2.81470       -0.90800        0.39750
H          3.69690        0.77420       -3.34960
H          3.68880        2.68670        2.37960
