10
542	1
F          2.28400       -0.28200       -1.41850
C          2.23080        0.10430       -0.09030
C          2.86760       -0.95730        0.80300
F          2.19200       -2.15530        0.65430
C          4.31100       -1.15800        0.44700
O          5.18480       -0.95350        1.27450
H          1.16760        0.24320        0.19890
H          2.75890        1.07440        0.03060
H          2.78260       -0.63060        1.86270
H          4.58350       -1.48990       -0.54980
