9
623	1
F          1.07800        0.24960       -0.17600
C          2.42640       -0.00120        0.00160
C          2.67340       -0.46390        1.40550
O          3.80340       -0.74420        1.77410
C          2.86450       -1.01290       -0.96650
C          3.24590       -1.82250       -1.77490
H          2.99580        0.93290       -0.18260
H          1.84840       -0.53680        2.10750
H          3.59270       -2.53210       -2.47950
