12
660	2
N          1.22020       -0.74360       -0.25610
C          2.23150        0.27080        0.02960
C          3.43650        0.18120       -0.88290
O          4.34880        0.97840       -0.72110
N          3.52770       -0.74900       -1.87160
O          4.61450       -0.79670       -2.65720
H          0.39810       -0.57380        0.36740
H          1.60470       -1.68470       -0.00850
H          2.56690        0.16580        1.08530
H          1.77710        1.27760       -0.09450
H          2.77230       -1.42960       -2.03250
H          4.37330       -0.26710       -3.46020
