14
687	1
C          0.87730       -0.16200       -0.45040
N          2.28640       -0.04730       -0.14530
C          3.05360        1.12230       -0.43470
N          2.51730        2.15510       -0.99550
O          4.37290        1.13230       -0.10690
C          5.21290        2.20340       -0.33420
H          0.50320       -1.15840       -0.13320
H          0.71500       -0.05680       -1.54390
H          0.30540        0.61850        0.09460
H          2.75920       -0.84650        0.30260
H          1.52400        2.19270       -1.26100
H          6.23100        1.94950        0.02570
H          4.85240        3.09770        0.21790
H          5.26450        2.42700       -1.42140
