12
684	1
N          4.83200       -0.63160       -0.95920
N          3.77270        0.22880       -0.68330
C          3.64950        0.84750        0.52400
O          2.69540        1.58740        0.71910
N          4.57200        0.65740        1.51240
N          4.44230        1.28370        2.74890
H          4.72880       -0.97520       -1.94150
H          4.74930       -1.46150       -0.32780
H          3.06420        0.40770       -1.41320
H          5.38560        0.04580        1.35870
H          3.54100        0.98040        3.18450
H          4.43090        2.31920        2.60180
