14
657	2
C          0.90960        0.14250        0.02410
C          2.41570       -0.00470       -0.19380
C          2.77540       -1.12810       -1.13770
O          1.89910       -1.82380       -1.63410
N          4.08190       -1.36410       -1.43350
N          4.45690       -2.39030       -2.29590
H          0.71570        0.97600        0.73160
H          0.48670       -0.79160        0.45160
H          0.40270        0.36910       -0.93810
H          2.90230       -0.19460        0.78690
H          2.80830        0.94950       -0.60610
H          4.81490       -0.77310       -1.01400
H          4.01140       -2.22550       -3.22680
H          4.12020       -3.29770       -1.90200
