11
702	1
F          1.24320        0.12310        0.34230
C          2.60800        0.04080        0.12190
C          2.94410       -0.54090       -1.23360
C          1.98060       -0.91940       -2.08980
C          4.36400       -0.69650       -1.62490
O          5.25790       -0.36000       -0.86430
H          3.05360       -0.59600        0.91480
H          3.03810        1.06140        0.19960
H          0.92970       -0.82090       -1.83890
H          2.23520       -1.33570       -3.06020
H          4.62210       -1.11230       -2.59430
