10
686	1
O          1.91250       -2.12290       -0.21200
N          2.54200       -0.94520       -0.08060
C          2.60650       -0.31280        1.12030
O          3.19230        0.75710        1.20480
N          2.02930       -0.85410        2.22550
O          2.09460       -0.21910        3.40570
H          1.00180       -1.89210       -0.52940
H          2.98990       -0.52080       -0.90730
H          1.52840       -1.75320        2.17020
H          2.86930       -0.62570        3.87250
