12
714	2
C          0.94970        0.12780       -0.03960
N          2.39350        0.05630       -0.03420
C          3.06940       -1.04530        0.02610
N          2.42390       -2.31680        0.09390
C          4.54370       -0.96780        0.02360
O          5.22190       -1.98120        0.07900
H          0.64080        1.19160       -0.09750
H          0.53880       -0.30710        0.89650
H          0.54080       -0.40550       -0.92440
H          1.39860       -2.40460        0.09750
H          2.98270       -3.18080        0.14120
H          5.03400       -0.00060       -0.02810
