9
711	1
F          1.34670        0.06900       -0.60940
C          2.64680        0.00380       -0.13880
C          2.68800       -0.60690        1.23380
O          1.65260       -0.96500        1.77380
C          3.97000       -0.78050        1.94160
O          5.01890       -0.43080        1.42390
H          3.06700        1.03080       -0.10180
H          3.25110       -0.61130       -0.83800
H          3.98450       -1.22310        2.93260
