14
681	1
C          1.56300        0.04970        1.34390
N          2.85280        0.01760        0.68890
C          3.34320        1.09750        0.02050
O          2.68910        2.13170       -0.03810
N          4.56160        1.02630       -0.58270
C          5.12050        2.14970       -1.30320
H          1.35940       -0.93020        1.82550
H          0.76380        0.25330        0.59980
H          1.55320        0.83910        2.12540
H          3.40870       -0.85010        0.73430
H          5.10710        0.15250       -0.52940
H          4.45310        2.43120       -2.14540
H          6.11590        1.87760       -1.71380
H          5.24250        3.01690       -0.61970
