14
635	1
N          3.03950       -1.09100       -0.33300
C          2.46360        0.17460        0.10840
C          3.01380        0.55520        1.46330
C          2.18270        0.69250        2.51090
C          4.50270        0.78040        1.60600
F          4.86700        1.12980        2.89580
H          2.66140       -1.31540       -1.28170
H          2.73240       -1.84960        0.31920
H          1.35390        0.08320        0.12700
H          2.72480        0.97290       -0.61930
H          1.11530        0.52920        2.39670
H          2.55150        0.96590        3.49370
H          4.81510        1.59580        0.92050
H          5.04640       -0.14640        1.32780
