14
636	1
O          2.76980        0.95630       -1.04990
C          2.40640        0.08090       -0.01960
C          2.74430        0.69690        1.31790
C          1.77390        0.94020        2.21450
C          4.18280        1.02040        1.65150
O          4.69060        1.97650        0.75960
H          2.60220        0.46940       -1.89820
H          2.96930       -0.87420       -0.11380
H          1.31650       -0.13390       -0.09570
H          0.73710        0.70690        1.99190
H          2.00510        1.37620        3.18160
H          4.78930        0.08540        1.62640
H          4.28460        1.42680        2.68090
H          5.18390        1.48470        0.05220
