9
752	1
C          0.88970       -0.05050        0.01860
C          2.22630       -0.01190        0.06450
C          2.92450       -0.48880        1.27500
O          4.14320       -0.46680        1.35100
C          2.97040        0.49480       -1.06810
N          3.55820        0.90170       -1.97870
H          0.31920       -0.42870        0.86260
H          0.34840        0.29280       -0.85660
H          2.34240       -0.86470        2.10950
