17
828	1
C          0.75550        0.10210       -0.25170
C          2.26390        0.07540        0.01630
C          2.69480        0.11730        1.50080
N          4.14400        0.11730        1.69740
C          3.07190       -0.76220       -0.95440
C          3.11880        0.79540       -0.99600
H          0.27630       -0.77300        0.23490
H          0.51960        0.07220       -1.33760
H          0.32070        1.03110        0.17330
H          2.24810       -0.74840        2.03810
H          2.27810        1.04720        1.94500
H          4.52610       -0.82530        1.45860
H          4.33690        0.27010        2.71380
H          2.57710       -1.09900       -1.89140
H          4.11140       -1.08740       -0.74290
H          2.62360        1.16710       -1.91950
H          4.10540        1.16840       -0.64710
