10
808	1
C          1.05540       -0.07040        0.03140
C          2.55320       -0.05260        0.04610
C          3.24570        0.82960        0.77610
F          2.64160        1.75610        1.54290
C          3.25720       -0.99020       -0.72980
N          3.83160       -1.75860       -1.36570
H          0.62470        0.70540        0.67340
H          0.68040       -1.03690        0.38460
H          0.68040        0.09580       -0.98420
H          4.32220        0.91480        0.84670
