13
773	1
C          0.92500        0.16440       -0.05830
C          2.43130        0.14280       -0.04430
C          3.14460       -1.09450       -0.53920
O          2.79980       -1.35510       -1.87210
C          3.11890        1.20790        0.40600
F          4.47870        1.21090        0.42920
H          0.55910        0.02830       -1.09740
H          0.51520        1.12100        0.33140
H          0.53750       -0.66310        0.57220
H          2.83200       -1.95970        0.08210
H          4.25200       -1.02670       -0.44660
H          3.29410       -0.69570       -2.42610
H          2.59530        2.09050        0.76060
