10
761	1
C          0.99950        0.02380        0.09170
C          2.33570        0.00220        0.06590
C          3.04820        0.55510       -1.10250
O          4.26780        0.54960       -1.15800
C          3.06630       -0.56010        1.17880
C          3.66840       -1.03100        2.11110
H          0.44250        0.44440       -0.73980
H          0.44850       -0.37520        0.93710
H          2.47760        0.97260       -1.92420
H          4.19550       -1.44450        2.92990
