16
801	1
C          0.89210       -0.14020        0.38860
C          2.38960       -0.14600        0.20740
C          3.08150       -0.65790       -0.84430
C          2.42170       -1.32550       -2.03810
C          4.57290       -0.54840       -0.80570
C          5.37270       -1.01100       -1.77610
H          0.55240        0.91130        0.49010
H          0.64760       -0.67950        1.32710
H          0.29950       -0.59950       -0.41710
H          2.95250        0.31330        1.01640
H          1.32320       -1.38050       -2.01770
H          2.78940       -2.36970       -2.12090
H          2.69380       -0.77220       -2.96140
H          5.04270       -0.07010        0.05010
H          4.98170       -1.49990       -2.66080
H          6.44810       -0.89810       -1.68380
