8
753	1
C          0.92780       -0.07510        0.05180
C          2.27330       -0.07490        0.05160
C          2.97560       -0.74310        1.07030
N          3.55200       -1.28950        1.90330
C          2.97660        0.59260       -0.96610
N          3.55150        1.13950       -1.80000
H          0.35690       -0.58280        0.82580
H          0.35690        0.43250       -0.72220
