13
789	1
C          1.06560        0.08480        0.20980
C          2.54420       -0.01420       -0.03630
C          3.30920        1.21600       -0.47340
F          2.47400        2.31410       -0.58650
N          3.12570       -1.15860        0.13430
N          4.47450       -1.36430       -0.06230
H          0.86850        0.82550        1.01290
H          0.64700       -0.89580        0.52340
H          0.55190        0.40630       -0.72040
H          3.77950        1.03300       -1.46240
H          4.09640        1.45270        0.27290
H          4.86930       -2.30230        0.09240
H          5.10570       -0.60760       -0.36040
