15
830	1
C          0.80370        0.06250       -0.28620
C          2.31520        0.06340       -0.04340
C          2.79440        0.12360        1.41460
F          4.17560        0.11920        1.52010
C          3.13760       -0.76300       -1.00350
C          3.14770        0.79250       -1.07120
H          0.34850       -0.81660        0.21620
H          0.55380        0.01700       -1.36830
H          0.36010        0.98760        0.13770
H          2.39440       -0.75190        1.96750
H          2.40610        1.04900        1.88930
H          2.64040       -1.15490       -1.91750
H          4.14320       -1.11050       -0.68230
H          2.65470        1.11030       -2.01580
H          4.15750        1.15400       -0.78030
