12
919	1
C          1.11420       -0.07790        0.21760
C          2.42880       -0.02020       -0.00400
C          3.26010        1.17580        0.10260
O          4.56050        0.71510       -0.22680
C          4.46010       -0.68340       -0.50650
O          3.15260       -1.06090       -0.35420
H          0.56600        0.81390        0.50490
H          0.58280       -1.01840        0.11210
H          3.24110        1.56810        1.14160
H          2.92640        1.94430       -0.62670
H          5.09300       -1.25440        0.20520
H          4.78050       -0.88060       -1.55130
