13
883	1
C          1.10640        0.03590        0.24840
C          2.61230       -0.00410       -0.02920
N          3.39810        1.06990        0.65510
C          4.12360        0.03330        1.45250
C          3.32770       -0.95990        0.77480
O          3.30320       -2.17870        0.83170
H          0.65950        0.91160       -0.26690
H          0.89880        0.11510        1.33770
H          0.62990       -0.88890       -0.13980
H          2.86310       -0.09910       -1.10790
H          2.78540        1.60960        1.31290
H          3.91390        0.07480        2.54440
H          5.19760       -0.04600        1.18000
