16
846	1
C          1.16230        0.58550       -0.07510
C          2.41120       -0.28800        0.12070
C          2.94870       -0.50360        1.54190
N          3.29680        0.77480        2.15250
C          2.63480       -1.36100       -0.84000
N          3.47030       -0.12040       -0.87940
H          0.31100        0.13560        0.47750
H          0.87340        0.67270       -1.14460
H          1.35010        1.60440        0.32260
H          3.84380       -1.16640        1.54100
H          2.15770       -0.99480        2.14830
H          4.08690        1.20450        1.61800
H          3.63230        0.59620        3.12660
H          2.03620       -1.41350       -1.77700
H          3.30660       -2.20000       -0.56090
H          3.12650        0.48040       -1.66460
