15
839	1
C          1.28020       -0.59880        0.82810
C          2.44820       -0.04500        0.00620
C          3.09240       -0.99380       -1.02690
F          4.14680       -0.48210       -1.76260
C          3.23610       -2.46900       -0.72870
C          2.24190       -1.97050       -1.80680
H          0.92150        0.18910        1.52350
H          1.59680       -1.46780        1.43940
H          0.43030       -0.88330        0.17540
H          3.24430        0.27690        0.71090
H          2.09130        0.85480       -0.53860
H          2.65110       -2.93820        0.08870
H          4.07390       -3.00040       -1.22990
H          1.21440       -2.21680       -1.46890
H          2.61740       -2.26970       -2.80920
