16
849	1
C          2.62720       -0.53300       -1.54270
C          2.48010        0.04940       -0.13460
C          2.88120       -0.88410        1.02800
C          2.83490       -0.31410        2.44530
C          2.79550       -2.35880        0.89460
O          4.02640       -1.64260        0.78560
H          2.34550        0.23900       -2.28960
H          1.95220       -1.40150       -1.68570
H          3.67840       -0.83710       -1.73150
H          1.42310        0.35900        0.01060
H          3.11530        0.95920       -0.07370
H          1.79060       -0.03430        2.69670
H          3.47380        0.59190        2.50280
H          3.19850       -1.04640        3.19810
H          2.62570       -2.84260       -0.08680
H          2.86990       -2.98750        1.80670
