13
861	1
O          0.97250       -0.14120       -0.09180
C          2.37140       -0.09240       -0.06820
C          2.97580        0.96840        0.85780
C          4.02490       -0.07110        1.24960
C          3.01920       -1.14360        0.83370
F          3.55420       -2.24230        0.18510
H          0.67900        0.72580       -0.47400
H          2.85460       -0.08510       -1.07420
H          2.29760        1.12550        1.73070
H          3.31540        1.93030        0.41900
H          4.41440       -0.07450        2.28960
H          4.84940       -0.03660        0.49790
H          2.35660       -1.39630        1.69490
