14
869	1
C          1.10930        0.17070        0.16130
C          2.58630       -0.07960       -0.14290
O          3.39670        0.95490        0.36380
C          4.04850        0.06130        1.23990
C          3.23000       -1.12030        0.75370
O          3.98250       -2.08440        0.05310
H          0.75490        1.04850       -0.41860
H          0.95600        0.37220        1.24340
H          0.51150       -0.71790       -0.13110
H          2.78700       -0.24350       -1.22560
H          3.81890        0.32880        2.29500
H          5.13240       -0.00730        0.99900
H          2.57690       -1.54430        1.54790
H          4.58400       -1.62590       -0.59100
