16
893	1
N          1.13140       -0.02100       -0.21560
C          2.57780       -0.00280       -0.00230
C          3.04690        1.08200        0.94090
C          4.47400        0.61000        1.17120
N          4.41670       -0.85780        1.25490
C          3.09170       -1.23250        0.73350
H          0.84830        0.87080       -0.68270
H          0.63080       -0.08080        0.70130
H          3.10870        0.09730       -0.97820
H          2.48420        1.01070        1.90050
H          2.96710        2.11770        0.54760
H          4.95320        1.08370        2.05550
H          5.07910        0.86510        0.27220
H          4.47860       -1.15830        2.25640
H          2.41770       -1.44480        1.59780
H          3.12860       -2.13630        0.08930
