12
910	1
O          1.16610       -0.08920        0.45530
C          2.31640       -0.02190        0.05210
C          3.08040        1.21530       -0.03070
C          4.26710        0.68210       -0.82130
O          4.44330       -0.68510       -0.49900
C          3.14250       -1.19750       -0.27720
H          3.34740        1.51020        1.00680
H          2.59030        2.04680       -0.58110
H          5.17900        1.28680       -0.63260
H          4.03730        0.72920       -1.91140
H          3.16850       -1.88090        0.59770
H          2.75410       -1.72270       -1.17590
