13
908	1
O          1.34920       -0.08330        0.61850
C          2.49070       -0.02560        0.18990
C          3.26450        1.22220        0.09040
C          4.41820        0.72020       -0.77500
N          4.63540       -0.68810       -0.42560
C          3.28010       -1.21530       -0.20730
H          3.58320        1.50450        1.11660
H          2.74400        2.06140       -0.41880
H          5.33290        1.34540       -0.68880
H          4.09180        0.74040       -1.84100
H          5.13460       -0.69450        0.49630
H          3.29500       -1.98030        0.60020
H          2.86020       -1.65280       -1.13810
