14
911	2
N          1.13990        0.00130        0.27490
C          2.35770        0.10920       -0.11700
C          3.15410        1.36340       -0.05830
C          4.40240        0.90500       -0.83760
C          4.51100       -0.61350       -0.60690
N          3.13550       -0.99690       -0.47590
H          0.61480        0.82690        0.59810
H          3.37390        1.57290        1.01040
H          2.68740        2.24240       -0.55260
H          5.32710        1.49850       -0.67940
H          4.12690        1.00870       -1.91340
H          5.02750       -0.84430        0.34990
H          5.02210       -1.11090       -1.45880
H          2.81640       -1.97180       -0.37630
