13
980	1
C          1.03880       -0.01370       -0.01210
C          2.56320       -0.00520        0.10180
C          3.13070       -1.29060        0.76680
O          3.78090       -0.81420        1.88810
N          3.69200        0.48420        2.01900
C          3.03420        1.01250        1.07670
H          0.71930       -0.82490       -0.69980
H          0.68430        0.95660       -0.42050
H          0.56810       -0.17820        0.98150
H          3.03290        0.18400       -0.88780
H          3.85610       -1.79990        0.09720
H          2.33320       -1.99830        1.08090
H          2.86210        2.07840        1.00620
