9
1009	1
N          0.95390       -0.04190        0.06650
C          2.23430       -0.03400        0.07530
N          2.99570        1.07580        0.07140
N          4.24890        0.63680        0.08380
N          4.24500       -0.68930        0.09480
H          5.09760       -1.29150        0.10570
N          3.00100       -1.13110        0.08980
H          2.70790       -2.13360        0.09600
H          0.42200        0.84080        0.05540
