14
939	1
C          1.17960       -0.02390        0.16740
C          2.48880       -0.02410       -0.10200
C          3.29040       -1.28090       -0.26750
C          4.63180       -0.71170       -0.54960
C          4.63200        0.66290       -0.54970
C          3.29070        1.23250       -0.26780
H          0.64110       -0.96000        0.27760
H          0.64140        0.91240        0.27730
H          2.92580       -1.88670       -1.12380
H          3.30000       -1.88400        0.66510
H          5.51640       -1.30630       -0.73550
H          5.51680        1.25720       -0.73590
H          2.92630        1.83820       -1.12430
H          3.30050        1.83580        0.66460
