12
981	1
N          1.08140       -0.02870       -0.03250
C          2.53910       -0.01960        0.04890
C          3.08480       -1.30410        0.73160
O          3.68180       -0.83240        1.88330
N          3.60590        0.46730        2.00280
C          2.99400        0.99790        1.03170
H          0.78830       -0.79010       -0.68670
H          0.76000        0.87820       -0.44320
H          3.00080        0.15480       -0.94830
H          3.85220       -1.79600        0.09720
H          2.27740       -2.02200        0.99050
H          2.82870        2.06420        0.95400
