12
945	2
C          1.13320       -0.05880        0.14120
C          2.45060       -0.09600       -0.06990
C          3.31000       -1.32580       -0.11590
N          4.61540       -0.72360       -0.37370
C          4.54240        0.55480       -0.45920
N          3.24590        1.03000       -0.28470
H          0.57900       -0.97800        0.30120
H          0.60640        0.89000        0.15460
H          3.01370       -1.99910       -0.94780
H          3.30680       -1.86190        0.85660
H          5.39950        1.18740       -0.64650
H          2.94190        2.01430       -0.31020
