10
949	1
O          1.31930        0.12410        0.38700
C          2.48910        0.04550        0.04890
C          3.25940       -1.24060       -0.01780
C          4.55980       -0.66260       -0.47770
C          4.44520        0.70110       -0.61590
O          3.21640        1.11970       -0.30320
H          2.83300       -1.94160       -0.76560
H          3.35190       -1.72120        0.97870
H          5.46320       -1.22400       -0.67550
H          5.24300        1.35760       -0.93620
