12
1030	1
N          0.91630        0.11330       -0.23480
N          2.31550        0.08920       -0.09720
C          3.12020        1.16550       -0.03370
C          4.43130        0.74640        0.07830
C          4.40820       -0.63850        0.07890
C          3.08370       -1.01360       -0.03240
H          0.55020        0.94910        0.27630
H          0.52290       -0.71920        0.26150
H          2.77800        2.19170       -0.06860
H          5.30690        1.37790        0.14770
H          5.26230       -1.29870        0.14840
H          2.70770       -2.02790       -0.06690
