10
953	2
N          1.01840        0.06900       -0.08720
C          2.29980        0.06410       -0.08230
N          3.06600        1.16650       -0.07790
H          2.76510        2.16650       -0.07770
C          4.32380        0.68090       -0.07370
N          4.31760       -0.67120       -0.07550
N          3.04840       -1.04790       -0.08090
H          2.71850       -2.03870       -0.08340
H          0.49350        0.95590       -0.08810
H          5.21790        1.29010       -0.06940
