10
1003	3
N          1.05430       -0.02520       -0.07130
C          2.46570       -0.02040       -0.06650
C          3.28360        1.08070       -0.06550
N          4.54290        0.61520       -0.06040
H          5.42120        1.17900       -0.05830
N          4.49370       -0.71000       -0.05850
N          3.23320       -1.12440       -0.06210
H          0.53170        0.86260       -0.07440
H          0.54000       -0.91760       -0.07160
H          2.99920        2.12470       -0.06810
