10
944	2
O          1.27730        0.18570        0.50960
C          2.44610        0.09700        0.16880
C          3.20730       -1.18320       -0.02090
C          4.52680       -0.54540       -0.42500
N          4.46280        0.73380       -0.44000
N          3.22090        1.15120       -0.08640
H          2.78120       -1.80510       -0.83570
H          3.29780       -1.75870        0.92400
H          5.42800       -1.08860       -0.67530
H          2.93680        2.14000       -0.02900
