7
1020	1
O          0.95220       -0.10550       -0.05450
C          2.16900       -0.08220       -0.03940
N          2.91410        1.03700       -0.03450
N          4.16940        0.60840       -0.01710
N          4.16790       -0.71690       -0.01200
H          5.01880       -1.32110        0.00100
O          2.94010       -1.13660       -0.02570
