9
1011	1
N          1.02720        0.08700        0.04980
C          2.30790        0.09270        0.05110
N          3.06170        1.20790        0.05250
C          4.31900        0.71030        0.05350
O          4.29510       -0.60620        0.05260
N          3.06350       -1.01310        0.05120
H          2.75010       -2.00930        0.05020
H          0.49630        0.97040        0.04980
H          5.21750        1.31240        0.05470
