11
946	3
N          1.05580        0.10290        0.27340
C          2.31410        0.05140        0.02750
C          3.14870       -1.18970       -0.06530
N          4.45200       -0.59620       -0.35780
C          4.39150        0.68580       -0.42040
N          3.10700        1.17350       -0.19470
H          0.51600       -0.76060        0.43050
H          2.81450       -1.84440       -0.89750
H          3.17000       -1.73970        0.89900
H          5.24940        1.31140       -0.62670
H          2.80930        2.15970       -0.19320
