12
1023	1
O          0.83730        0.01880        0.00050
C          2.23620        0.02880        0.05820
C          2.81050        1.16220       -0.74130
C          3.57060        0.69370       -1.78840
C          3.56340       -0.67440       -1.77760
C          2.79840       -1.11910       -0.72320
H          0.53020        0.78170        0.55650
H          2.60180        0.01420        1.10880
H          2.65460        2.21190       -0.53020
H          4.08730        1.31870       -2.50450
H          4.07330       -1.31560       -2.48400
H          2.63140       -2.16400       -0.49700
