15
938	1
C          1.18780        0.00530        0.22690
N          2.57750        0.00520       -0.24580
C          2.91550       -1.19770       -1.04130
C          3.62240       -0.68120       -2.22870
C          3.61990        0.67230       -2.23650
C          2.91110        1.20000       -1.05520
H          1.00420       -0.88970        0.85890
H          0.47630       -0.00100       -0.62840
H          1.00090        0.90700        0.84840
H          2.01940       -1.76700       -1.37580
H          3.58480       -1.85660       -0.44950
H          4.06140       -1.29130       -3.00700
H          4.05670        1.27500       -3.02190
H          2.01290        1.76210       -1.39630
H          3.57790        1.86820       -0.47110
