8
960	2
O          1.08260        0.02320       -0.09030
C          2.30020        0.01860       -0.08390
N          3.07010        1.12850       -0.08140
H          2.77240        2.12930       -0.08440
C          4.32070        0.63180       -0.07410
N          4.29730       -0.71970       -0.07220
O          3.03950       -1.06040       -0.07840
H          5.22150        1.23090       -0.07020
