13
1029	1
C          0.92430       -0.04070        0.06440
N          2.38200       -0.05740        0.06920
C          3.19500        1.01600        0.07230
C          4.51020        0.59670        0.07700
C          4.48580       -0.78540        0.07670
C          3.15670       -1.15800        0.07180
H          0.54410        1.00320        0.06340
H          0.54230       -0.56000        0.96840
H          0.54800       -0.55970       -0.84210
H          2.85600        2.04410        0.07130
H          5.38920        1.22730        0.08050
H          5.34170       -1.44680        0.07980
H          2.78010       -2.17290        0.07030
