7
1129	1
F          0.96840       -0.11110       -0.04840
C          2.32310       -0.09680       -0.04770
N          3.07260        1.01850       -0.04620
N          4.33540        0.62090       -0.04600
C          4.31930       -0.72650       -0.04750
O          3.08240       -1.16340       -0.04860
H          5.20040       -1.35400       -0.04780
