11
1044	1
C          0.97970        0.09080       -0.05560
N          2.43590        0.08360       -0.05180
C          3.25440        1.14790       -0.05240
N          4.54210        0.75230       -0.04810
C          4.45910       -0.59680       -0.04490
N          3.17630       -1.00860       -0.04710
H          0.59390        1.13270       -0.05920
H          0.60310       -0.42920        0.84990
H          0.60770       -0.43380       -0.96040
H          2.93000        2.18050       -0.05590
H          5.31290       -1.26070       -0.04100
