8
1062	1
O          0.97310        0.07800        0.06030
C          2.19310        0.07800        0.05600
N          2.99350        1.22050        0.05500
C          4.19880        0.78030        0.04980
C          4.19880       -0.62440        0.04730
N          2.99350       -1.06450        0.05100
H          5.06970        1.42190        0.04770
H          5.06960       -1.26600        0.04290
