13
1080	1
C          0.97910       -0.01930        0.09420
C          2.47280       -0.01490        0.09920
C          3.28100        1.10450        0.10170
C          4.58230        0.64330        0.10610
C          4.51390       -0.73670        0.10610
N          3.22680       -1.12920        0.10180
H          2.88170       -2.11480        0.10080
H          0.58430        1.01870        0.09280
H          0.60710       -0.54510        0.99800
H          0.61310       -0.54540       -0.81190
H          2.96200        2.13850        0.10050
H          5.48100        1.24550        0.10900
H          5.35690       -1.41500        0.10900
