11
1085	2
N          0.90630        0.06490        0.01220
C          2.31800        0.04930        0.01740
C          3.13770        1.15100        0.01840
N          4.40670        0.71470        0.02390
H          5.27180        1.29890        0.02600
C          4.33660       -0.63260        0.02620
N          3.05960       -1.07370        0.02230
H          0.39610        0.96000        0.00860
H          0.37920       -0.82000        0.01190
H          2.83940        2.19130        0.01530
H          5.20050       -1.28400        0.03070
