10
1092	1
N          1.00920        0.06270        0.07240
C          2.42120        0.06960        0.07510
C          3.24240        1.16790        0.07660
N          4.51100        0.70940        0.07900
N          4.45360       -0.61840        0.07890
N          3.19320       -1.02390        0.07660
H          2.88490       -2.02130        0.07600
H          0.48570        0.94990        0.07140
H          0.49560       -0.83010        0.07150
H          2.95580        2.21100        0.07610
