8
1132	1
O          1.06520       -0.07960       -0.04180
C          2.41000       -0.06510       -0.04690
N          3.15800        1.05240       -0.05250
C          4.41440        0.56280       -0.05600
N          4.41030       -0.78570       -0.05270
O          3.15970       -1.13670       -0.04710
H          0.56240        0.74670       -0.04190
H          5.30830        1.17170       -0.06090
