9
1046	1
O          0.99860        0.12610       -0.31870
N          2.34000        0.02820       -0.16300
C          3.21510        1.04130       -0.12490
N          4.46690        0.56980        0.03730
C          4.29630       -0.77220        0.09290
N          2.99620       -1.10710       -0.03030
H          0.63760        0.17650        0.60330
H          2.95610        2.08820       -0.21210
H          5.10020       -1.48470        0.21910
