8
1056	1
O          0.94780       -0.05780       -0.06520
C          2.16760       -0.05780       -0.06840
C          3.06030        1.08150       -0.07160
N          4.25960        0.63140       -0.07450
N          4.25960       -0.74700       -0.07360
C          3.06030       -1.19710       -0.07010
H          2.80220        2.13190       -0.07160
H          2.80220       -2.24750       -0.06860
