11
1107	1
N          1.02350        0.01930        0.08670
C          2.43510        0.02920        0.09200
C          3.22990        1.15330        0.09280
C          4.52660        0.68720        0.09860
C          4.44190       -0.69340        0.10110
O          3.17710       -1.05260        0.09700
H          0.49660        0.90460        0.08300
H          0.51390       -0.87570        0.08660
H          2.90680        2.18590        0.08950
H          5.43010        1.28210        0.10080
H          5.27470       -1.38390        0.10560
