10
1103	1
C          1.08270       -0.06870        0.01960
C          2.57400       -0.05540        0.02030
N          3.33730        1.05130        0.02280
N          4.59090        0.61780        0.02260
N          4.60030       -0.70820        0.02010
N          3.35390       -1.14530        0.01860
H          3.06350       -2.14800        0.01660
H          0.68940        0.96960        0.02130
H          0.71560       -0.59730        0.92370
H          0.71650       -0.59390       -0.88690
