9
1131	1
N          1.06840       -0.03030        0.06710
C          2.47910       -0.01950        0.06310
N          3.22700        1.09740        0.05790
C          4.48340        0.60710        0.05570
N          4.47880       -0.74160        0.05950
O          3.22810       -1.09210        0.06400
H          0.54310        0.85570        0.06610
H          0.55860       -0.92510        0.07110
H          5.37750        1.21570        0.05150
