11
1096	1
N          1.08170       -0.01040       -0.01430
C          2.49360       -0.02340       -0.01880
N          3.24930        1.09290       -0.02370
C          4.52030        0.64140       -0.02680
C          4.50770       -0.73810       -0.02370
N          3.23010       -1.14840       -0.01870
H          2.88470       -2.13380       -0.01540
H          0.57210        0.88480       -0.01470
H          0.55460       -0.89530       -0.01070
H          5.39560        1.27690       -0.03100
H          5.36730       -1.39520       -0.02500
