9
1148	1
F          0.91660       -0.02100       -0.07970
C          2.27120       -0.05050       -0.07270
C          3.12560        1.02910       -0.06850
N          4.39400        0.57260       -0.06190
N          4.35630       -0.75210       -0.06180
H          5.20140       -1.36470       -0.05730
C          3.07590       -1.16380       -0.06830
H          2.84860        2.07470       -0.07020
H          2.75810       -2.19800       -0.06970
