6
1137	1
F          1.23860        0.09450       -0.05560
C          2.59040        0.00760       -0.05880
N          3.43060        1.05510       -0.06190
N          4.64430        0.52400       -0.06440
N          4.54100       -0.79740       -0.06280
O          3.27840       -1.10410       -0.05940
