17
1196	1
C          0.94000        0.01920       -0.06820
C          2.46770       -0.06570       -0.07870
C          3.19460       -0.80060       -1.12730
C          2.45680       -1.52160       -2.25740
N          3.05680        0.67580       -1.22350
C          4.29580        1.36970       -0.83590
H          0.52920       -0.85160        0.48290
H          0.48250        0.06510       -1.07440
H          0.64230        0.94550        0.46540
H          3.00570        0.05050        0.88910
H          4.20610       -1.16850       -0.84380
H          1.54190       -1.00420       -2.60250
H          2.19640       -2.54850       -1.92720
H          3.13660       -1.59510       -3.13140
H          4.91270        1.53770       -1.74300
H          4.91790        0.82500       -0.08900
H          4.03540        2.36120       -0.41030
