15
1229	1
C          0.98590       -0.08930        0.00930
C          2.50580       -0.07560       -0.03150
C          3.02680        0.42850       -1.37740
C          4.55480        0.44080       -1.41390
C          5.04890        0.92640       -2.70940
N          5.44150        1.30970       -3.73170
H          0.63630       -0.44830        0.98240
H          0.57860       -0.74990       -0.76270
H          0.57980        0.91500       -0.14800
H          2.87940       -1.08880        0.15680
H          2.88090        0.56400        0.77590
H          2.64310        1.43960       -1.56520
H          2.64140       -0.20910       -2.18360
H          4.93960       -0.56930       -1.23190
H          4.94100        1.08170       -0.61280
