14
1138	1
C          0.95100       -0.01350       -0.08920
C          2.44850       -0.02790       -0.08740
C          3.20810       -1.11740       -0.08580
C          4.67380       -0.76970       -0.08430
C          4.59530        0.72920       -0.08530
C          3.28880        1.14400       -0.08710
H          0.54250       -1.04650       -0.08910
H          0.58720        0.51550       -0.99460
H          0.58500        0.51660        0.81460
H          2.82050       -2.12810       -0.08570
H          5.17960       -1.14820       -0.99710
H          5.17740       -1.14700        0.83020
H          5.44530        1.39840       -0.08470
H          2.95940        2.17460       -0.08820
