10
1194	1
O          1.02230        0.03760        0.03000
C          2.40560       -0.14480        0.12190
C          3.08950       -0.74680       -1.10080
F          2.12200       -1.27280       -1.94160
C          3.06660        0.75890       -0.90620
F          4.36460        1.15200       -0.63210
H          0.63040       -0.84360        0.25970
H          2.89140        0.10930        1.08830
H          3.85070       -1.43090       -0.67040
H          2.57000        1.15770       -1.81660
