18
1219	1
C          0.94050        0.06190        0.07880
C          2.43590       -0.10990       -0.16750
N          3.18520        0.97170        0.48260
C          4.62450        0.82910        0.22610
C          5.41760        2.02530        0.76720
N          5.32580        2.12410        2.22160
H          0.38270       -0.75750       -0.42310
H          0.59560        1.03570       -0.33110
H          0.72270        0.02640        1.16810
H          2.61220       -0.08810       -1.26640
H          2.75770       -1.09860        0.23230
H          3.01600        0.90770        1.51340
H          4.80240        0.78620       -0.87140
H          5.00930       -0.11050        0.68230
H          5.06110        2.96770        0.29650
H          6.48430        1.88050        0.48980
H          4.36270        2.42640        2.49130
H          5.97680        2.87740        2.54100
