8
1155	2
F          0.86510       -0.08060       -0.04880
C          2.21980       -0.07310       -0.04190
C          3.03920        1.02760       -0.03960
N          4.29960        0.56670       -0.03230
H          5.17630        1.13300       -0.02880
N          4.25350       -0.75730       -0.03020
N          2.99410       -1.17330       -0.03590
H          2.75210        2.07070       -0.04300
