11
1154	3
C          0.90430        0.02120       -0.05430
C          2.39600        0.02920       -0.04990
C          3.22440        1.12650       -0.04910
N          4.48200        0.65860       -0.04470
H          5.36180        1.22010       -0.04300
N          4.42890       -0.66470       -0.04290
N          3.16750       -1.07430       -0.04600
H          0.50970        1.05920       -0.05700
H          0.53360       -0.50390        0.85050
H          0.53890       -0.50660       -0.95960
H          2.94530        2.17200       -0.05150
