14
1232	1
O          2.10920        1.20570        0.89510
C          1.98810        0.18410       -0.05590
C          2.89190       -0.99650        0.32410
C          4.38720       -0.63340        0.40740
C          5.02750       -0.25800       -0.90490
O          4.39920       -0.27050       -1.95170
H          1.48040        1.92010        0.61380
H          2.25150        0.57170       -1.06230
H          0.93670       -0.18040       -0.07540
H          2.75200       -1.82620       -0.40260
H          2.56830       -1.36160        1.32340
H          4.93740       -1.51600        0.79740
H          4.52320        0.20000        1.12900
H          6.07920        0.00780       -0.92050
