17
1216	1
C          0.54660       -0.60040        0.02380
N          1.95310       -0.21080       -0.07760
C          2.73870       -0.81920        1.00300
C          4.21540       -0.44220        0.88030
O          4.35750        0.95700        1.00400
C          5.72320        1.29580        0.93320
H         -0.02320       -0.14070       -0.81070
H          0.10900       -0.25120        0.98440
H          0.44240       -1.70370       -0.05470
H          2.00390        0.83170       -0.00030
H          2.65920       -1.92750        0.94250
H          2.35790       -0.48780        1.99540
H          4.58460       -0.79440       -0.11040
H          4.76030       -0.96430        1.70040
H          5.81340        2.39730        1.02860
H          6.16000        1.01720       -0.05150
H          6.29540        0.84910        1.77640
