12
1268	1
C          3.58070        0.30940       -1.45130
O          3.15240       -0.68970       -0.55300
C          3.24390       -0.21320        0.77280
O          4.55590       -0.27690        1.21250
C          5.26890        0.78380        1.67310
O          4.78160        1.90330        1.72360
H          3.53160       -0.10280       -2.47990
H          4.63980        0.59660       -1.26890
H          2.90680        1.19410       -1.42270
H          2.63420       -0.88210        1.41450
H          2.78460        0.79740        0.88460
H          6.29190        0.63340        1.99930
