13
1290	1
C          1.49960        0.77600       -0.93450
C          2.27530        0.19170       -0.01290
C          3.02980       -1.08840       -0.24220
C          4.53630       -0.88870       -0.08340
C          5.25470       -2.14940       -0.30400
N          5.82210       -3.14720       -0.47730
H          0.96790        1.69660       -0.71170
H          1.36810        0.35280       -1.92600
H          2.36160        0.65210        0.97000
H          2.81160       -1.49040       -1.24020
H          2.67130       -1.83550        0.47740
H          4.76270       -0.51120        0.92130
H          4.89330       -0.13530       -0.79590
