13
1242	1
C          1.13630       -0.14900       -0.18850
O          2.53840       -0.04190       -0.09830
C          2.87930        1.08130        0.68590
C          4.40210        1.16950        0.76530
C          4.82350        2.32280        1.56920
N          5.15430        3.23110        2.20540
H          0.89750       -1.03550       -0.81190
H          0.69230        0.73480       -0.69780
H          0.67650       -0.32060        0.80990
H          2.47760        0.97470        1.72090
H          2.49580        2.01820        0.21780
H          4.82500        1.27240       -0.25660
H          4.80730        0.24400        1.22690
