13
1279	2
C          0.51870        0.14570       -0.00850
C          2.03140        0.30410       -0.00400
O          2.62770       -0.95840       -0.18440
N          3.95890       -0.76090       -0.19520
C          4.63490       -0.74790       -1.36690
O          5.84450       -0.58450       -1.37650
H          0.03640        1.13580        0.13380
H          0.20410       -0.52980        0.81530
H          0.18380       -0.28200       -0.97740
H          2.33140        0.74080        0.97580
H          2.30810        0.99170       -0.83580
H          4.46690       -0.64650        0.69620
H          4.10390       -0.88230       -2.30410
