14
1274	2
C          0.94170        0.02150        0.07570
C          2.46240        0.11420        0.11900
N          3.05520       -0.85340       -0.80610
N          4.44080       -0.77450       -0.71160
C          5.15720       -1.86270       -0.35120
O          6.37340       -1.79830       -0.27170
H          0.50220        0.75610        0.78300
H          0.61320       -0.99880        0.36720
H          0.57140        0.24540       -0.94740
H          2.80120       -0.10290        1.15620
H          2.77300        1.14770       -0.15380
H          2.78930       -0.60800       -1.78840
H          4.92430        0.11340       -0.92510
H          4.65460       -2.80000       -0.13130
