11
1292	1
O          2.54220        0.61590       -0.96450
C          2.03040       -0.07180       -0.09400
C          2.86810       -0.82100        0.90780
C          4.37400       -0.61520        0.70440
C          5.13400       -1.37020        1.70680
N          5.73190       -1.96390        2.50000
H          0.94940       -0.14560       -0.04070
H          2.62840       -1.90300        0.81920
H          2.58340       -0.47500        1.92530
H          4.62720        0.46210        0.80390
H          4.67300       -0.96650       -0.30630
