15
1252	1
N          0.98390        0.42340        0.32280
C          2.38690        0.07650        0.12310
C          2.96210        0.84720       -1.06740
N          4.36050        0.53360       -1.24750
N          4.75020       -0.75800       -1.52350
C          5.98860       -1.06310       -1.68110
H          0.62580       -0.11100        1.14730
H          0.43280        0.12220       -0.51360
H          2.47890       -1.01900       -0.05090
H          2.95990        0.34050        1.03890
H          2.85190        1.93820       -0.88200
H          2.40570        0.58780       -1.99420
H          5.06070        1.28930       -1.17770
H          6.26640       -2.08910       -1.89530
H          6.76530       -0.30780       -1.60040
