11
1325	1
C          1.18030        0.70590       -0.36490
N          2.42270        0.58660       -0.07440
O          3.24350        1.60790       -0.20850
C          4.56700        1.47090        0.12850
C          5.28340        2.72370       -0.11840
C          5.89930        3.74210       -0.31180
H          0.51800       -0.14500       -0.25000
H          0.78550        1.65140       -0.72310
H          5.02530        0.66870       -0.48750
H          4.65070        1.20830        1.20430
H          6.45100        4.62720       -0.49350
