12
1296	2
N          1.68880       -0.90470       -1.22400
C          1.72070       -0.10770       -0.21740
N          2.92570        0.54980        0.15440
C          4.15890        0.34440       -0.58830
C          5.32360        1.12840       -0.03910
O          5.20590        1.85470        0.93560
H          0.81250       -1.37780       -1.48780
H          0.81700        0.06830        0.35940
H          2.89980        1.17950        0.96960
H          4.00360        0.65100       -1.64480
H          4.42510       -0.73390       -0.56180
H          6.29050        1.04350       -0.52390
