10
1314	3
O          1.89540       -1.25950        0.19270
C          1.77570       -0.12880       -0.25380
N          2.85940        0.58090       -0.65920
N          4.13700        0.05480       -0.58390
C          5.22100        0.76560       -0.98650
O          5.10170        1.89770       -1.42970
H          0.78680        0.31270       -0.32580
H          2.71050        1.53210       -1.02900
H          4.28580       -0.89710       -0.21590
H          6.20990        0.32420       -0.91430
