10
1311	1
C          1.52130       -0.13820        0.95460
N          2.76200       -0.07330        0.63660
O          3.17410       -0.45370       -0.55580
C          4.50590       -0.36680       -0.87960
C          4.72920       -0.84300       -2.24580
N          4.91120       -1.20570       -3.32950
H          1.20350        0.18180        1.94130
H          0.78480       -0.50820        0.24780
H          5.10230       -0.99030       -0.18280
H          4.83790        0.69290       -0.80760
