17
1237	1
C          1.03150        0.02420       -0.02320
N          2.49380        0.06670       -0.00590
C          2.97250        1.14580        0.86490
C          4.50240        1.16620        0.88500
C          5.00130        2.25150        1.80120
C          5.77390        3.24680        1.35490
H          0.69560       -0.80330       -0.68300
H          0.61330        0.97820       -0.41370
H          0.63630       -0.16700        0.99770
H          2.82480        0.24230       -0.98390
H          2.60190        0.98040        1.90190
H          2.59690        2.12890        0.49900
H          4.87850        1.31750       -0.15130
H          4.88120        0.18940        1.25450
H          4.72740        2.22330        2.85190
H          6.06610        3.30410        0.31080
H          6.11830        4.01380        2.04100
