12
1395	1
C          0.35550       -0.01810        0.29760
C          1.80840       -0.04520       -0.07500
C          2.68100        0.83110        0.43500
O          3.98540        0.76890        0.06930
C          4.94050        1.61410        0.53360
O          4.67000        2.50250        1.32870
H         -0.25340        0.13810       -0.61690
H          0.12480        0.79380        1.02050
H          0.07750       -0.99000        0.75550
H          2.15330       -0.79870       -0.77740
H          2.34090        1.58770        1.13880
H          5.96310        1.49840        0.19200
