15
1351	2
C          1.87050        0.00170       -0.42870
C          3.37270       -0.06040       -0.19370
N          3.78900       -1.43390       -0.02590
C          5.01960       -1.73940        0.20200
N          5.41310       -3.09690        0.35910
N          4.49540       -4.13670        0.25750
H          1.55830        1.05920       -0.56220
H          1.32880       -0.42390        0.44270
H          1.60050       -0.56970       -1.34200
H          3.62180        0.52370        0.71940
H          3.89760        0.38620       -1.06660
H          5.77280       -0.95840        0.27790
H          6.40180       -3.31430        0.54800
H          4.06190       -4.10410       -0.69380
H          3.75620       -4.00000        0.98390
