14
1337	1
N          0.88200       -0.02930       -0.09010
C          2.32410       -0.11380        0.11670
C          2.99580        1.19950       -0.28790
C          4.47550        1.12580       -0.05250
N          5.29550        1.27750       -1.02890
O          6.59350        1.21520       -0.82390
H          0.45010       -0.93120        0.21530
H          0.68760        0.08490       -1.11170
H          2.73940       -0.95380       -0.48460
H          2.52300       -0.31390        1.19280
H          2.57990        2.03240        0.31860
H          2.78930        1.40540       -1.36160
H          4.84920        0.94570        0.95260
H          7.20550        1.33140       -1.56270
