13
1355	2
C          2.40430       -0.56150        1.07750
N          3.55890       -0.56000        0.21710
N          3.78430        0.50590       -0.62350
C          4.80680        0.53810       -1.40470
N          5.01680        1.64770       -2.26120
O          4.15180        2.67240       -2.27770
H          2.38230       -1.49300        1.68180
H          1.48060       -0.50620        0.46410
H          2.44590        0.31240        1.76090
H          4.20970       -1.36120        0.23850
H          5.51820       -0.28370       -1.41530
H          5.83440        1.66010       -2.88820
H          4.53040        3.33560       -1.64550
