13
1349	1
C          3.39850       -0.30630        1.29440
O          3.01030        0.26240        0.06290
C          3.12950       -0.68990       -0.97520
C          4.51880       -0.67530       -1.54020
N          5.22620       -1.74670       -1.54600
O          6.44520       -1.73680       -2.04030
H          3.37470        0.48780        2.06850
H          4.44220       -0.69060        1.25810
H          2.68380       -1.09720        1.61200
H          2.42400       -0.40590       -1.78340
H          2.82560       -1.71470       -0.65320
H          4.92160        0.24990       -1.94430
H          6.97290       -2.54650       -2.04150
