13
1391	2
C          0.65450       -0.50850        0.38290
C          1.85230        0.23420       -0.11530
N          3.03430       -0.23230        0.08740
N          4.15420        0.43270       -0.36130
C          5.45730       -0.09000       -0.13290
N          5.63850       -1.19670        0.49750
H          0.00070       -0.77000       -0.47480
H          0.08990        0.13510        1.08890
H          0.95320       -1.44220        0.90630
H          1.71020        1.17030       -0.64900
H          4.06130        1.32450       -0.87240
H          6.31970        0.45720       -0.49890
H          4.85250       -1.75220        0.86390
