12
1415	1
C          1.04370        0.06160       -0.06370
C          2.50640        0.06160       -0.04530
C          3.71210        0.06130       -0.03000
C          5.17680        0.06240       -0.01090
C          5.68670       -1.33810       -0.14380
O          6.40560       -1.64660       -1.08080
H          0.66910       -0.91630        0.30290
H          0.68660        0.22890       -1.10070
H          0.66540        0.87200        0.59280
H          5.52950        0.49130        0.94990
H          5.54870        0.69570       -0.84470
H          5.42060       -2.08500        0.59770
