12
1397	1
N          0.57810        0.03770       -0.25500
N          1.92850        0.01880        0.00320
C          2.76660        0.62710       -0.76490
O          4.10080        0.60750       -0.50850
C          4.66670       -0.03220        0.54550
C          5.98780        0.00650        0.71270
H         -0.06790       -0.45690        0.37560
H          0.19880        0.54030       -1.07210
H          2.41260        1.16940       -1.63710
H          4.05830       -0.57930        1.26100
H          6.61580        0.54670        0.01100
H          6.44540       -0.50350        1.55420
