13
1388	2
C          0.95230        0.21680       -0.17250
N          2.37710        0.00860       -0.08050
C          2.88620       -0.78880        0.79160
N          4.28910       -0.96830        0.85240
N          4.82900       -1.82210        1.78660
C          6.09850       -2.00720        1.86790
H          0.74120        0.93860       -0.98810
H          0.56380        0.63080        0.78270
H          0.43940       -0.74230       -0.40010
H          2.24470       -1.32850        1.48540
H          4.89820       -0.45630        0.19400
H          6.49620       -2.68610        2.61400
H          6.78270       -1.49290        1.19880
