10
1387	3
O          1.04360        0.15800        0.16550
N          2.34290       -0.04730        0.14560
C          2.88400       -0.69390       -0.82260
N          4.28680       -0.90980       -0.83420
C          4.87590       -1.58920       -1.84650
O          6.08350       -1.76740       -1.84340
H          0.64240        0.64550        0.89720
H          2.26530       -1.07510       -1.63280
H          4.86350       -0.54370       -0.06050
H          4.28240       -1.98080       -2.66800
