14
1352	2
C          0.83060       -0.24880        0.12220
C          2.34420       -0.12300        0.03340
N          2.69130        0.98500       -0.82590
C          3.91760        1.29750       -1.06150
N          4.22610        2.39040       -1.90960
O          3.24900        3.11880       -2.46930
H          0.56400       -1.10070        0.78270
H          0.40220       -0.42920       -0.88680
H          0.39370        0.68200        0.54270
H          2.76560       -1.06620       -0.37890
H          2.75710        0.04620        1.05220
H          4.72740        0.72660       -0.61300
H          5.21100        2.63680       -2.08570
H          3.10940        2.71340       -3.36320
