13
1339	1
O          3.06100        0.27260       -1.39070
C          2.47800        0.14060       -0.12330
C          3.07820       -1.05910        0.60870
C          4.55600       -0.88670        0.81280
N          5.04800       -0.86630        1.99860
O          6.34240       -0.71730        2.17990
H          2.62960        1.06140       -1.81070
H          1.38370       -0.02870       -0.23400
H          2.65410        1.06190        0.47670
H          2.89940       -1.98290        0.01800
H          2.56910       -1.16850        1.59170
H          5.20840       -0.78250       -0.05080
H          6.70660       -0.70260        3.07510
