12
1341	1
O          0.98360        1.32010        0.69660
N          2.27350        1.09820        0.56520
C          2.90140        0.38440        1.42840
C          4.37260        0.13140        1.27510
C          5.14510        0.66910        2.47600
F          4.73060        0.04240        3.63830
H          0.51670        1.85840        0.04350
H          2.36900       -0.04350        2.27440
H          4.75260        0.62500        0.35350
H          4.54410       -0.96230        1.18410
H          4.99000        1.76500        2.57350
H          6.22930        0.47600        2.33420
