9
1396	1
F          0.52660       -0.05730       -0.21060
C          1.87720       -0.01200       -0.07170
C          2.64920        0.25740       -1.12400
O          3.99660        0.30120       -0.97870
C          4.85630        0.56760       -1.99470
O          4.45170        0.78860       -3.12690
H          2.32130       -0.19670        0.90160
H          2.18610        0.43960       -2.09070
H          5.92230        0.58450       -1.79720
