11
1529	1
N          1.06950       -0.08560       -0.02210
C          2.52490       -0.08360        0.00030
C          3.00620       -1.04790        0.96130
C          3.40290       -1.84280        1.75340
C          3.91390       -2.86490        2.77310
C          4.31420       -3.66660        3.57210
H          0.74320        0.63550       -0.66130
H          0.72400        0.16970        0.90180
H          2.88310        0.92070        0.24960
H          2.89690       -0.32360       -1.00090
H          4.66780       -4.37880        4.27970
