12
1500	1
C          1.00720        0.30610       -0.45090
C          2.29380        0.12760       -0.14220
C          2.72560       -0.01490        1.25890
N          3.96890       -0.18550        1.52970
N          4.38640       -0.31980        2.83060
C          5.62900       -0.49010        3.10060
H          0.70840        0.40910       -1.48900
H          0.24760        0.35050        0.32420
H          3.03240        0.08710       -0.93780
H          1.99180        0.02460        2.06150
H          5.94690       -0.59500        4.13200
H          6.36930       -0.53070        2.30620
