14
1462	1
C          0.88220        0.01840        0.02960
C          2.39820       -0.06720       -0.10210
C          2.81650       -1.47140       -0.44610
C          3.48900       -1.74620       -1.57310
C          3.89150       -3.12600       -1.89430
O          4.50280       -3.35840       -2.92430
H          0.58950        1.05540        0.29800
H          0.52300       -0.66930        0.82510
H          0.39700       -0.25140       -0.93290
H          2.86720        0.21900        0.86320
H          2.73080        0.65580       -0.87920
H          2.56330       -2.27320        0.24320
H          3.74520       -0.94860       -2.26540
H          3.64860       -3.94250       -1.22100
