14
1442	1
N          4.35450       -0.62910       -0.67450
C          3.10920        0.01040       -0.25530
C          3.19260        0.64880        1.11400
C          4.30760        0.65390        1.87160
C          4.35620        1.29940        3.23140
F          3.14570        1.86300        3.59650
H          4.22870       -0.98850       -1.64840
H          4.53310       -1.45810       -0.06160
H          2.29320       -0.74530       -0.24840
H          2.84490        0.80330       -0.98740
H          2.29150        1.12790        1.48470
H          5.21840        0.18660        1.51400
H          5.13210        2.09300        3.22750
H          4.63330        0.53290        3.98460
