13
1463	1
C          0.92320        0.08690        0.20490
C          2.41770        0.21310       -0.04650
C          2.81880       -0.47270       -1.32030
C          3.35930        0.16210       -2.37210
C          3.73280       -0.52150       -3.56150
N          4.03900       -1.07480       -4.53360
H          0.65490        0.58130        1.14400
H          0.61980       -0.96300        0.27750
H          0.34600        0.55380       -0.60050
H          2.96710       -0.24150        0.78580
H          2.69150        1.27440       -0.06840
H          2.65930       -1.55010       -1.36140
H          3.53060        1.23270       -2.35060
