12
1532	1
C          0.91100        0.00720        0.04230
C          2.24780       -0.00070        0.07490
C          2.95080       -0.30260        1.25460
C          3.54590       -0.55810        2.25310
C          4.26310       -0.87120        3.43750
C          5.25740       -1.76560        3.43510
H          0.37970        0.24170       -0.87390
H          0.31760       -0.21900        0.92350
H          2.81680        0.22880       -0.82090
H          3.98390       -0.36320        4.35550
H          5.55420       -2.28640        2.53000
H          5.79750       -1.99580        4.34730
