15
1509	1
C          1.05200       -0.04630       -0.00030
C          2.57160       -0.07730       -0.03680
C          3.05300       -0.95930       -1.07380
C          3.44970       -1.68630       -1.92860
C          3.93100       -2.56830       -2.96570
N          5.36040       -2.37670       -3.16380
H          0.70300        0.62580        0.78990
H          0.64030       -1.04290        0.19410
H          0.64030        0.30560       -0.95280
H          2.94750       -0.40180        0.94000
H          2.94750        0.93880       -0.20020
H          3.40550       -2.37500       -3.90690
H          3.74460       -3.61300       -2.69700
H          5.52730       -1.40580       -3.42080
H          5.66480       -2.94170       -3.95340
