10
1523	1
O          1.06420        0.00020        0.07360
C          2.48420        0.00810        0.07630
C          2.96550       -1.30780       -0.27270
C          3.36220       -2.39240       -0.56030
C          3.86290       -3.69820       -0.90580
O          5.06510       -3.91920       -0.93670
H          0.78080        0.89810        0.31250
H          2.82660        0.30180        1.07310
H          2.82710        0.75720       -0.64380
H          3.10130       -4.46000       -1.13360
