13
1454	1
C          3.64370       -1.40220        0.54200
N          4.49470       -0.56290       -0.26110
N          3.97410        0.55550       -0.87060
C          4.70790        1.32570       -1.59460
C          4.11650        2.53470       -2.24580
F          4.77250        3.66540       -1.79750
H          4.22790       -2.25260        0.95300
H          2.81510       -1.79970       -0.08070
H          3.22270       -0.81230        1.38310
H          5.49130       -0.80850       -0.37300
H          5.76260        1.10760       -1.74170
H          3.03470        2.62510       -2.00870
H          4.23670        2.45440       -3.34610
