12
1491	1
C          0.93270        0.22850        0.56430
O          2.24640        0.12280        0.16360
C          2.94310       -0.92870        0.63090
C          4.26970       -1.01140        0.50590
C          4.97810       -2.13530        1.05060
C          5.58560       -3.07000        1.50140
H          0.45680        1.12060        0.14200
H          0.89640        0.30000        1.67640
H          0.35550       -0.67060        0.25270
H          2.38370       -1.70440        1.14300
H          4.83870       -0.24010        0.00830
H          6.11590       -3.89060        1.89740
