14
1443	1
O          3.50920       -1.45050        0.35340
C          2.98500       -0.31730       -0.27820
C          3.30730        0.89420        0.54790
C          4.03060        1.91030        0.05260
C          4.35060        3.12140        0.88340
O          5.73850        3.28120        0.98140
H          3.21960       -2.22810       -0.19100
H          1.87800       -0.40050       -0.34730
H          3.41360       -0.23000       -1.30220
H          2.93950        0.93620        1.56950
H          4.39950        1.87090       -0.96870
H          3.89900        3.07320        1.90110
H          3.92590        4.01680        0.38410
H          6.05490        2.61170        1.64310
