11
1479	1
F          1.41890        0.73780        0.58970
C          2.52490        0.23720       -0.07050
C          2.78230       -1.16420        0.38260
N          3.90050       -1.47140        0.93490
N          4.14110       -2.75690        1.35220
C          5.25820       -3.06340        1.90380
H          3.39900        0.89020        0.13980
H          2.33040        0.23950       -1.16310
H          2.01380       -1.91970        0.23920
H          5.43680       -4.08220        2.22940
H          6.03000       -2.31250        2.04940
