11
1469	1
F          3.79790       -0.75040       -0.71670
C          2.60760       -0.23640       -0.23030
C          2.82370        0.84980        0.78900
C          4.04700        1.25470        1.16540
C          4.21140        2.32200        2.16720
O          5.32970        2.67940        2.49920
H          2.02800       -1.05980        0.23600
H          2.02390        0.17550       -1.07940
H          1.94530        1.31510        1.22870
H          4.93590        0.80120        0.73670
H          3.34370        2.79650        2.61550
