16
1438	1
C          2.10140        0.19440       -1.41300
C          2.73870        0.22590       -0.02890
C          3.12110       -1.16380        0.40410
C          4.39290       -1.48500        0.68650
C          4.77200       -2.87370        1.11880
O          5.71190       -3.41130        0.23050
H          1.81130        1.22340       -1.71310
H          1.19170       -0.44360       -1.40620
H          2.82190       -0.20480       -2.15880
H          2.01120        0.64010        0.70090
H          3.62420        0.89830       -0.05840
H          2.34010       -1.91510        0.48690
H          5.17570       -0.73600        0.60490
H          3.89140       -3.55190        1.19950
H          5.23030       -2.81870        2.12800
H          5.21010       -3.68450       -0.58180
