14
1465	1
O          2.15910       -0.81810        1.14820
C          2.68310       -0.30600       -0.04380
C          2.96190        1.15850        0.13560
C          4.19530        1.66300       -0.01540
C          4.44650        3.10770        0.16560
C          5.67260        3.61490        0.01650
H          1.93230       -1.76670        0.96430
H          1.93820       -0.41530       -0.86260
H          3.61060       -0.86100       -0.31160
H          2.13480        1.81510        0.39340
H          5.02270        1.00650       -0.27370
H          3.62640        3.77240        0.42380
H          6.51340        2.97750       -0.24120
H          5.83920        4.67840        0.15330
