16
1604	1
C          2.09900       -0.27140        0.91060
N          3.51590       -0.09310        0.59010
C          3.71910       -0.05420       -0.86730
C          5.11400        0.44960       -1.31220
C          5.80260        1.42700       -0.47650
N          6.28750        0.02000       -0.53550
H          1.97560       -0.33710        2.01220
H          1.70300       -1.20520        0.45320
H          1.50980        0.59980        0.55220
H          4.02150       -0.91930        0.98450
H          2.98860        0.64830       -1.32600
H          3.54190       -1.06250       -1.30330
H          5.34490        0.50810       -2.39710
H          5.45720        1.64890        0.55740
H          6.56180        2.06710       -0.97310
H          6.01780       -0.44950        0.35440
