7
1540	1
C          0.97980        0.09060        0.03320
C          2.18510        0.09060        0.03320
C          3.59690        0.09060        0.03320
C          4.80220        0.09060        0.03320
C          6.21400        0.09060        0.03320
N          7.37120        0.09060        0.03320
H         -0.07850        0.09060        0.03320
