16
1547	1
C          3.00840       -0.39150       -1.07820
O          2.22740        0.00320        0.02560
C          2.83620       -0.46370        1.20970
C          2.05370       -0.11050        2.47640
C          2.41490       -1.49680        3.00660
C          2.58990       -1.93810        1.55490
H          2.51900       -0.02000       -2.00170
H          3.06340       -1.49940       -1.16320
H          4.02200        0.06610       -1.04070
H          3.90480       -0.16740        1.35360
H          0.96130       -0.10280        2.24570
H          2.35640        0.78270        3.06300
H          1.68510       -2.03470        3.64810
H          3.42210       -1.44190        3.48380
H          1.59290       -2.24680        1.15900
H          3.38000       -2.68130        1.31710
