7
1536	1
O          0.96120        0.05920       -0.07470
C          2.18080        0.06100       -0.07320
C          2.90270       -0.89590       -0.86770
C          3.50870       -1.69770       -1.53330
C          4.21870       -2.63660       -2.31280
N          4.80060       -3.40610       -2.95160
H          2.72110        0.78450        0.52730
