18
1542	1
C          3.41140        0.20200       -1.11710
C          2.44680        0.15840        0.06400
C          2.94250       -0.80280        1.14990
C          2.00070       -1.08290        2.32240
C          2.53980       -2.51550        2.31510
C          2.92400       -2.30370        0.84880
H          3.03300        0.91430       -1.88020
H          3.49980       -0.80260       -1.58250
H          4.41560        0.53880       -0.78220
H          1.44350       -0.15650       -0.29660
H          2.36130        1.17750        0.49840
H          3.94520       -0.52110        1.55350
H          0.94690       -1.10870        1.95620
H          2.10170       -0.47710        3.24770
H          1.85460       -3.34950        2.57660
H          3.47420       -2.54480        2.92460
H          2.03500       -2.54530        0.21910
H          3.84780       -2.78400        0.46250
