17
1600	1
C          0.88200        0.17140        0.08420
C          2.40730        0.22630        0.07520
C          2.98130       -0.51020       -1.13850
C          4.51610       -0.41550       -1.13500
C          5.25080       -1.49820       -0.48890
N          5.19550       -1.41860       -1.97180
H          0.49610        0.71180        0.97450
H          0.53440       -0.88310        0.12930
H          0.47290        0.65280       -0.83000
H          2.78990       -0.24210        1.00890
H          2.72850        1.29110        0.05270
H          2.60420       -0.03920       -2.07200
H          2.63870       -1.56920       -1.11720
H          5.02550        0.56990       -1.19190
H          4.72210       -2.41730       -0.14930
H          6.28970       -1.27480       -0.16780
H          4.51150       -2.13470       -2.31130
