14
1628	1
C          1.46460        0.90760       -0.47630
C          2.16080       -0.20600       -0.22860
C          3.18260       -0.26960        0.87160
C          4.54510       -0.63050        0.28150
C          5.47520        0.48730       -0.00180
O          5.59270       -0.31910        1.15670
H          0.73340        0.92150       -1.27790
H          1.61750        1.80650        0.11320
H          1.98400       -1.08850       -0.83690
H          2.88320       -1.06150        1.58960
H          3.23300        0.69240        1.43040
H          4.72070       -1.59570       -0.23880
H          5.21440        1.51490        0.32840
H          6.35420        0.28080       -0.64680
