17
1543	1
N          2.55120       -1.45370       -0.09740
C          2.31020       -0.01670       -0.02410
C          2.77210        0.53330        1.32800
C          2.45100        1.99630        1.63850
C          2.24410        1.56380        3.09220
C          1.96940        0.15010        2.57360
H          2.25470       -1.79080       -1.04180
H          1.95580       -1.93920        0.61230
H          1.22860        0.19310       -0.18140
H          2.88740        0.48980       -0.82740
H          3.85730        0.35240        1.51980
H          1.45390        2.25790        1.21080
H          3.21350        2.77180        1.41360
H          1.46690        2.07420        3.69970
H          3.23480        1.56560        3.60600
H          0.88680        0.08160        2.31150
H          2.30410       -0.71730        3.18100
