6
1537	1
N          0.95400        0.09500       -0.02900
C          2.11110        0.09500       -0.02900
C          3.52300        0.09500       -0.02900
C          4.72820        0.09500       -0.02900
C          6.14010        0.09500       -0.02900
N          7.29720        0.09500       -0.02900
