15
1614	1
O          0.93200        0.03410       -0.25370
C          2.32910        0.10740       -0.31190
C          2.89910       -1.28100       -0.58280
N          4.37420       -1.21660       -0.59280
C          4.96440       -2.38560       -1.28330
C          4.93280       -1.08480       -1.95900
H          0.61560        0.95790       -0.07640
H          2.72680        0.47890        0.65920
H          2.63560        0.79110       -1.13500
H          2.45960       -1.67160       -1.53110
H          2.58190       -1.96130        0.23750
H          4.21340       -3.14780       -1.58910
H          5.92500       -2.65660       -0.79750
H          4.15710       -0.90860       -2.73620
H          5.86960       -0.49130       -1.91590
