12
1582	1
O          2.33660        0.97420        0.19890
C          2.21030       -0.23110        0.05580
C          3.05290       -0.96270       -0.94820
C          4.51620       -1.05340       -0.57710
C          4.25490       -2.54050       -0.66980
O          2.87460       -2.35520       -0.88030
H          1.48220       -0.76990        0.65350
H          2.89950       -0.61460       -1.99490
H          4.70830       -0.77110        0.48250
H          5.20920       -0.66850       -1.35590
H          4.45830       -3.07680        0.28310
H          4.71040       -2.99710       -1.57720
