16
1561	1
N          2.61640       -1.34970        0.08950
C          2.41020        0.09460        0.07260
C          2.94610        0.72550        1.36720
C          2.68180        2.21010        1.54120
C          2.30950        1.80100        2.95560
N          2.21440        0.38150        2.59390
H          2.26110       -1.74550       -0.81040
H          2.05280       -1.77060        0.86310
H          1.32800        0.31980       -0.05740
H          2.96400        0.52830       -0.78790
H          4.02790        0.50190        1.52750
H          1.74400        2.49100        1.01170
H          3.52900        2.91540        1.40660
H          1.37630        2.25600        3.35620
H          3.17740        1.92430        3.64460
H          1.20980        0.20340        2.35100
