12
1723	1
C          1.08260        0.01210       -0.03360
C          2.59340        0.15700        0.11980
O          3.32180       -0.50580       -0.87990
C          3.26620        0.90760       -0.96830
C          4.57460        1.49680       -0.64750
C          5.62760        2.00960       -0.35440
H          0.71560       -0.69500        0.73840
H          0.78890       -0.36980       -1.03830
H          0.60480        0.99910        0.14020
H          3.08440        0.18020        1.11580
H          2.70340        1.22990       -1.86920
H          6.54600        2.48960       -0.13050
