16
1661	1
C          1.03990        0.03060       -0.15850
C          2.55700        0.12350        0.00260
C          3.29730       -0.91990       -0.84020
C          3.36000        0.56890       -1.19960
C          4.63760        1.33290       -0.83060
O          4.33060        2.66820       -0.53810
H          0.66250       -0.84380        0.41180
H          0.73010       -0.07650       -1.22070
H          0.57640        0.95080        0.25300
H          3.00440        0.16110        1.01930
H          2.79160       -1.41170       -1.69890
H          4.30960       -1.24110       -0.51420
H          2.72490        0.91250       -2.04530
H          5.36280        1.27830       -1.67330
H          5.14680        0.89000        0.05280
H          4.18830        3.12470       -1.40830
