11
1651	1
O          0.92250       -0.55150       -1.44960
N          2.22160       -0.48050       -1.64420
C          3.03710       -0.75190       -0.69080
C          4.51290       -0.67610       -0.92010
C          5.06870        0.62590       -1.37650
O          5.05490        0.26370       -0.02170
H          0.31370       -0.34570       -2.17140
H          2.66170       -1.04860        0.28520
H          5.13640       -1.59140       -0.85010
H          4.36740        1.47180       -1.53800
H          6.11360        0.62130       -1.74950
