15
1685	1
C          0.88080       -0.00600       -0.14420
C          2.38750        0.19400        0.04970
N          3.22540       -0.72960       -0.75290
C          3.14360        0.71000       -1.08600
C          4.45360        1.43260       -0.76770
O          4.22820        2.81190       -0.67610
H          0.55140       -0.89320        0.43530
H          0.60170       -0.15010       -1.21050
H          0.34660        0.88810        0.23850
H          2.80520        0.30970        1.07260
H          2.63750       -1.24740       -1.44700
H          2.63750        0.88120       -2.06310
H          5.20760        1.21450       -1.55720
H          4.89330        1.08460        0.19250
H          4.13570        3.14750       -1.60600
