13
1637	1
C          0.99840       -0.70510        0.24430
C          2.15810       -0.39990        0.11970
C          3.56880       -0.03310       -0.03170
C          4.17570        0.27930        1.34330
C          5.29370        1.21540        1.36930
N          3.94840        1.65000        1.82970
H         -0.01890       -0.97500        0.35400
H          3.64670        0.82300       -0.73650
H          4.11330       -0.89300       -0.47400
H          4.15200       -0.46790        2.16510
H          5.57190        1.79290        0.45900
H          5.96110        1.17860        2.25530
H          3.52030        2.23590        1.07520
