14
1689	1
C          0.88310        0.02700       -0.03070
C          2.36450        0.31430        0.18730
O          3.16630       -0.54600       -0.59150
C          3.13610        0.81090       -0.97610
C          4.47400        1.49130       -0.68890
O          4.32200        2.88270       -0.73980
H          0.60710       -0.90310        0.50840
H          0.63420       -0.09880       -1.10670
H          0.28600        0.86800        0.37820
H          2.78100        0.40420        1.21300
H          2.64550        0.91740       -1.96700
H          5.23640        1.15640       -1.42790
H          4.86480        1.21770        0.31510
H          4.29350        3.13090       -1.70080
