17
1731	1
C          0.93430       -0.15410       -0.23130
C          2.44510       -0.07380        0.00870
C          3.11030       -1.42310       -0.32870
C          3.01410        1.18980       -0.70310
C          4.34320        1.17640       -1.31500
N          3.12840        1.12760       -2.17010
H          0.49410       -0.99190        0.35090
H          0.71780       -0.31540       -1.30900
H          0.44260        0.78710        0.09580
H          2.60690        0.08790        1.09680
H          2.97640       -1.70990       -1.39080
H          2.65700       -2.22660        0.29050
H          4.19220       -1.39700       -0.08430
H          2.62200        2.18420       -0.40070
H          4.92720        0.24650       -1.48290
H          4.82470        2.16530       -1.46360
H          3.00560        0.15100       -2.51430
