15
1644	1
C          0.89580       -0.17540       -0.01740
C          2.38280       -0.26370        0.15700
C          3.15400       -0.93050       -0.71400
C          4.64860       -1.00400       -0.52890
C          5.17340       -1.53620        0.73360
N          5.09890       -2.41470       -0.44310
H          0.60120        0.89100       -0.10370
H          0.39760       -0.61730        0.87030
H          0.54890       -0.71450       -0.92490
H          2.83480        0.22950        1.01300
H          2.70990       -1.42000       -1.57650
H          5.30990       -0.50070       -1.26440
H          4.45440       -1.85560        1.52190
H          6.23210       -1.28830        0.95420
H          4.29240       -3.06640       -0.29110
