15
1680	1
C          2.64410        1.12700        0.01600
O          2.27630       -0.22910       -0.04030
C          2.94430       -0.89400        1.00220
C          2.89560       -2.39350        0.69970
C          4.21030       -1.64300        0.59340
N          5.13480       -1.74580        1.72580
H          2.16430        1.65450       -0.83390
H          3.74360        1.26040       -0.09900
H          2.27170        1.60280        0.95090
H          2.47810       -0.83970        2.01030
H          2.68130       -2.74370       -0.33270
H          2.99650       -3.12560        1.52940
H          4.59370       -1.20650       -0.35450
H          4.65250       -2.00440        2.61790
H          5.59450       -0.81710        1.86250
