12
1650	1
N          0.86320        0.18780       -0.05150
N          2.22600        0.22610       -0.23030
C          2.97120        1.00170        0.47560
C          4.45120        1.01640        0.26250
C          4.94300        1.34900       -1.10110
O          4.83580        2.32270       -0.09750
H          0.29110       -0.44250       -0.63060
H          0.40150        0.78150        0.65440
H          2.53780        1.64400        1.23800
H          5.13490        0.68640        1.07190
H          4.19550        1.55660       -1.89590
H          6.01440        1.14980       -1.30970
