10
1705	1
F          1.05400        0.02940       -0.20630
C          2.42230        0.11390       -0.01660
C          3.13500       -0.73970       -1.06160
C          3.19370        0.77580       -1.14370
C          4.43400        1.39380       -0.65620
N          5.41020        1.88230       -0.27130
H          2.87420       -0.08510        0.98020
H          2.49480       -1.15020       -1.87290
H          4.09550       -1.19150       -0.72900
H          2.52600        1.29870       -1.86130
