13
1690	1
C          1.04830        0.03180       -0.15770
C          2.53540        0.27980        0.06980
O          3.31890       -0.57900       -0.72890
C          3.32080        0.78730       -1.07960
C          4.67050        1.42770       -0.77360
F          4.54330        2.80290       -0.81990
H          0.75010       -0.90500        0.35730
H          0.79880       -0.06110       -1.23690
H          0.46950        0.87560        0.27140
H          2.95150        0.33420        1.09810
H          2.83530        0.92990       -2.06850
H          5.40730        1.10800       -1.53960
H          5.05410        1.13470        0.22770
