15
1668	1
N          3.58620       -0.48970        0.69530
C          2.41330       -0.05670       -0.05600
C          2.84430        0.73740       -1.29550
C          1.94930        1.86720       -1.76420
C          3.22470        2.16950       -0.96220
O          4.15640        2.75230       -1.82590
H          3.26580       -1.06910        1.50460
H          4.07390        0.35080        1.08260
H          1.74120        0.53400        0.60760
H          1.85470       -0.95260       -0.40140
H          3.56030        0.29340       -2.02140
H          0.98040        1.78070       -1.22690
H          1.99090        1.84700       -2.87440
H          2.87310        2.78010       -0.10320
H          5.03680        2.41140       -1.52320
