16
1732	1
C          0.99270       -0.09420        0.04570
C          2.51170        0.08760        0.12760
N          3.18350       -1.20740        0.29890
C          3.01980        0.91270       -1.08710
C          4.39800        0.73150       -1.53170
N          3.27300        0.19990       -2.34950
H          0.62230       -0.61860        0.95220
H          0.71940       -0.68960       -0.85140
H          0.49130        0.89540       -0.01430
H          2.73330        0.70370        1.02690
H          2.84140       -1.90370       -0.40140
H          2.94390       -1.59120        1.24210
H          2.59350        1.92160       -1.27250
H          5.01760       -0.12080       -1.17350
H          4.85820        1.57000       -2.09440
H          3.23970       -0.83360       -2.22330
