11
1711	1
C          0.91740        0.06250       -0.09700
C          2.42740        0.18420        0.06030
O          3.14390       -0.46440       -0.95560
C          3.10890        0.94630       -1.01470
C          4.43410        1.47880       -0.68070
N          5.47830        1.89670       -0.41920
H          0.53900       -0.66750        0.64820
H          0.63030       -0.28800       -1.11280
H          0.44190        1.04670        0.09470
H          2.92950        0.20790        1.05100
H          2.57120        1.26470       -1.93730
