12
1708	1
C          1.04730       -0.05600       -0.02840
C          2.56600        0.07750        0.11440
N          3.35900       -0.72380       -0.83510
C          3.25700        0.75220       -0.97860
C          4.54470        1.36110       -0.63080
N          5.56190        1.84090       -0.35810
H          0.69520       -0.92300        0.56950
H          0.72660       -0.19260       -1.08410
H          0.57250        0.86670        0.36550
H          3.03670        0.14130        1.11940
H          2.73550       -1.15980       -1.55440
H          2.77500        1.00440       -1.94980
