13
1785	1
C          0.40890        1.40680        0.26390
C          1.36200        0.30420       -0.16600
O          0.92900       -0.87080        0.42480
N         -0.34030       -1.25770        0.36370
C         -1.29480       -0.43120        0.07700
C         -1.00930        1.03050       -0.18510
H          0.69650        2.40120       -0.13910
H          0.43990        1.45440        1.37550
H          2.40130        0.52390        0.15650
H          1.34210        0.20120       -1.27330
H         -2.30530       -0.80660       -0.04430
H         -1.72730        1.67970        0.35950
H         -1.13760        1.19750       -1.27600
