16
1821	1
C          0.77580        1.36160       -0.18640
C         -0.65820        1.19730        0.24490
C         -1.03950       -0.20030       -0.25750
C         -0.80700       -1.38670        0.64730
C          0.32950       -0.99090       -0.26480
C          1.35360        0.03540        0.23410
H          1.28540        2.23980        0.26380
H          0.81720        1.44350       -1.29700
H         -1.31710        1.99330       -0.16150
H         -0.72020        1.22590        1.35680
H         -1.39270       -0.28450       -1.31070
H         -1.33810       -2.30330        0.31710
H         -0.66140       -1.14460        1.72160
H          0.42460       -1.33410       -1.32040
H          2.36900       -0.13550       -0.18130
H          1.41830       -0.00920        1.34540
