20
7	1
C          0.89410       -0.06570       -0.06450
C          2.42210       -0.14300        0.12940
C          2.72760       -0.16060        1.64260
N          2.92430       -1.37970       -0.48260
C          3.12740        1.09250       -0.50420
C          2.92930        1.27350       -2.01860
O          3.47250        0.19720       -2.73620
H          0.39620       -0.92920        0.42710
H          0.62250       -0.09820       -1.13930
H          0.48840        0.86910        0.37940
H          2.24510       -1.03490        2.13040
H          2.35090        0.76350        2.13210
H          3.82270       -0.22800        1.81970
H          2.47140       -2.21500       -0.04370
H          3.95810       -1.46030       -0.34130
H          4.22110        1.02710       -0.31020
H          2.75450        2.01440       -0.00520
H          3.45570        2.19720       -2.33960
H          1.85730        1.43500       -2.27200
H          2.71580       -0.38380       -3.00980
