21
26	1
C          1.03040       -2.01680        0.46110
N          2.48530       -2.16750        0.51010
C          3.12920       -0.88970        0.84850
C          4.66430       -1.03510        1.05540
C          5.36860       -1.49220       -0.23850
C          5.24020        0.33510        1.46140
N          4.95000       -2.00050        2.12480
H          0.56750       -2.99380        0.20820
H          0.73620       -1.27520       -0.31380
H          0.63890       -1.69810        1.45090
H          2.79790       -2.47720       -0.43810
H          2.68970       -0.50330        1.79630
H          2.92620       -0.14120        0.04850
H          5.17140       -0.77710       -1.06620
H          5.03110       -2.50070       -0.55320
H          6.46680       -1.55080       -0.07870
H          5.05560        1.09180        0.66810
H          6.33640        0.26290        1.63020
H          4.77110        0.69500        2.40250
H          4.59520       -2.95030        1.86740
H          4.48110       -1.70820        3.01360
