20
10	1
C          0.90130       -0.54520       -0.53760
C          2.41160       -0.50920       -0.22780
C          2.93060       -1.95220       -0.05170
O          3.09260        0.11890       -1.28890
C          2.62450        0.32740        1.06150
C          4.09700        0.50300        1.46830
N          4.19150        1.33600        2.66290
H          0.70540       -1.12500       -1.46520
H          0.51060        0.48430       -0.68670
H          0.33930       -1.02030        0.29540
H          2.72860       -2.54930       -0.96650
H          2.42840       -2.44750        0.80680
H          4.02670       -1.97040        0.11260
H          2.92800       -0.40620       -2.11590
H          2.07430       -0.14170        1.90740
H          2.19590        1.34090        0.89410
H          4.66810        0.97870        0.64050
H          4.55270       -0.48260        1.69590
H          3.82370        2.29100        2.44740
H          5.20050        1.43640        2.91810
