18
12	1
C          0.89130        0.18430        0.03820
C          2.39890        0.17520       -0.28630
C          2.63900        0.92300       -1.61540
O          3.10610        0.80770        0.75480
C          2.86930       -1.30030       -0.37860
C          4.37120       -1.46980       -0.63260
F          4.68620       -2.81630       -0.64250
H          0.51610        1.22650        0.12760
H          0.69820       -0.33470        1.00160
H          0.31290       -0.32690       -0.76160
H          2.26170        1.96580       -1.54550
H          2.11040        0.41630       -2.45130
H          3.71950        0.98240       -1.85660
H          2.78350        1.74470        0.82350
H          2.31120       -1.82440       -1.18570
H          2.63660       -1.80780        0.58400
H          4.95740       -0.97560        0.17040
H          4.66290       -1.04190       -1.61250
