22
25	1
C          1.27570       -0.35670        0.07180
N          2.73290       -0.29520       -0.05080
C          3.13320        0.79560       -0.95260
C          4.67460        0.99750       -0.99770
C          5.21100        1.30960        0.41400
C          5.38690       -0.25500       -1.55150
C          4.98620        2.18910       -1.92630
H          0.99860       -1.18450        0.75800
H          0.80370       -0.54470       -0.91790
H          0.88150        0.59000        0.50010
H          3.05040       -1.21020       -0.44450
H          2.67140        1.74600       -0.59880
H          2.75010        0.59420       -1.97950
H          5.01480        0.46480        1.10830
H          4.72460        2.22000        0.82610
H          6.30850        1.48360        0.38700
H          5.23850       -1.13570       -0.89360
H          6.48240       -0.08020       -1.62220
H          5.00860       -0.50280       -2.56670
H          4.50130        3.11730       -1.55360
H          4.61520        1.99300       -2.95570
H          6.08150        2.37100       -1.98150
