16
72	1
C          1.04480       -0.06400        0.17340
C          2.57110        0.05070        0.00270
C          2.97040        1.54190       -0.05940
O          3.21910       -0.55470        1.09560
C          2.95750       -0.73960       -1.24240
C          3.57710       -0.22870       -2.31810
F          3.87090       -1.03680       -3.36980
H          0.71130        0.46400        1.09260
H          0.74120       -1.12990        0.25940
H          0.51960        0.38480       -0.69770
H          2.66770        2.06360        0.87390
H          2.47120        2.05190       -0.91150
H          4.07190        1.64500       -0.16260
H          2.90800       -0.10990        1.92790
H          2.71240       -1.79860       -1.25670
H          3.85490        0.81600       -2.38020
