20
42	1
C          0.91630       -0.09140        0.03760
C          2.44770       -0.09220        0.21770
C          2.83880        0.92210        1.31590
N          2.86780       -1.43800        0.63020
C          3.14570        0.24150       -1.13010
C          2.78520        1.59890       -1.68980
C          2.19380        1.73040       -2.88130
H          0.41120       -0.36320        0.98950
H          0.61750       -0.83010       -0.73690
H          0.54910        0.91090       -0.27010
H          2.36650        0.64660        2.28340
H          2.50340        1.94860        1.06150
H          3.94050        0.93430        1.45880
H          2.41310       -1.70290        1.53510
H          3.90450       -1.46870        0.77080
H          2.88600       -0.55450       -1.86390
H          4.24830        0.21450       -0.99210
H          3.01700        2.49190       -1.11880
H          1.94940        0.86160       -3.48470
H          1.95080        2.71840       -3.25880
