13
30	1
C          1.74070       -0.65810       -0.24600
N          3.07740       -0.51110        0.33080
C          3.17210        0.72680        1.11320
C          4.54040        0.83450        1.78510
F          5.54260        0.86290        0.83170
F          4.59780        1.99840        2.52970
F          4.73980       -0.24700        2.62440
H          1.69730       -1.59560       -0.83950
H          1.50250        0.19660       -0.91680
H          0.97770       -0.72560        0.55910
H          3.76870       -0.47500       -0.45480
H          2.39370        0.73120        1.90860
H          3.01670        1.61170        0.45520
