20
69	1
C          0.82900        0.27440        2.05370
C          2.31580        0.45000        2.15550
C          3.12880        0.13190        1.12930
C          4.64950        0.28050        1.15180
C          5.27990       -1.10070        0.90940
C          5.06480        1.23300        0.01870
N          5.15880        0.81300        2.42400
H          0.48890       -0.42420        2.84610
H          0.52050       -0.13240        1.06680
H          0.33450        1.25680        2.20150
H          2.70950        0.84230        3.08520
H          2.68440       -0.25830        0.21660
H          4.94690       -1.52350       -0.06340
H          4.98710       -1.80750        1.71570
H          6.38870       -1.02500        0.89800
H          4.72830        0.84640       -0.96800
H          6.17010        1.34720       -0.00750
H          4.61430        2.23750        0.17190
H          4.92040        0.17620        3.21960
H          4.77440        1.76810        2.61190
