16
47	1
C          0.91450        0.05360       -0.04320
C          2.44690       -0.02890       -0.02590
C          2.88110       -1.38940        0.54400
F          2.90260        0.07510       -1.33110
C          3.01930        1.13870        0.80760
C          4.52170        1.15850        0.80020
O          5.14510        1.06950        1.84580
H          0.49090       -0.76620       -0.66210
H          0.58550        1.02050       -0.48080
H          0.50310       -0.02900        0.98610
H          2.46050       -2.21450       -0.06980
H          2.52620       -1.50780        1.59040
H          3.98700       -1.48790        0.53040
H          2.64840        1.06780        1.85470
H          2.66850        2.10340        0.38130
H          5.05830        1.25520       -0.13810
