14
1847	1
C         -0.34310        0.73130        0.20640
N         -0.30660       -0.66800       -0.27570
C          0.93350        0.03080        0.09350
C          1.49950       -0.52320        1.40630
C          2.78680       -1.20670        1.31200
N          2.72160        0.17000        1.85370
H         -0.85290        0.74850        1.19330
H         -0.64970        1.40860       -0.62140
H         -0.37900       -0.65480       -1.32030
H          1.58050        0.23470       -0.79030
H          0.84870       -0.77840        2.27050
H          3.35490       -1.20420        0.35410
H          3.04710       -1.89660        2.14160
H          3.05800        0.82710        1.11070
