15
48	1
C          0.75770        0.09690       -0.13850
C          2.27960        0.05300       -0.00100
C          2.68360        0.39030        1.43320
F          2.66100       -1.23460       -0.25230
C          2.92750        0.96340       -1.04970
C          4.37010        0.95260       -0.98670
N          5.52000        0.94480       -0.93740
H          0.28660       -0.60660        0.55660
H          0.45210       -0.20650       -1.14570
H          0.36250        1.09870        0.05880
H          2.17000       -0.26920        2.14160
H          2.43880        1.42670        1.68700
H          3.75510        0.23280        1.59260
H          2.56240        1.99010       -0.92680
H          2.61930        0.63390       -2.04950
