19
8	1
C          1.00660        0.05220       -0.04230
C          2.54680        0.00430       -0.11170
C          3.03580       -1.24230        0.65590
N          2.96280       -0.08730       -1.51770
C          3.17750        1.26750        0.53940
C          2.80090        2.58800       -0.14170
F          3.45380        3.63240        0.48690
H          0.57020       -0.87450       -0.47320
H          0.60150        0.90360       -0.62570
H          0.66360        0.14320        1.01080
H          2.61010       -2.16830        0.21270
H          2.72730       -1.19250        1.72280
H          4.14370       -1.31830        0.61600
H          2.56220       -0.94610       -1.96200
H          4.00560       -0.14580       -1.58490
H          4.28570        1.17390        0.50140
H          2.87850        1.32630        1.60930
H          1.71060        2.77510       -0.07360
H          3.10290        2.57380       -1.20980
