19
61	1
C          0.85690       -0.08420       -0.14380
C          2.38380        0.00280        0.05080
C          2.76690        1.48320        0.22910
C          2.75600       -0.77860        1.32400
C          3.06800       -0.60610       -1.20060
C          4.51120       -0.59310       -1.15490
C          5.70070       -0.58240       -1.11720
H          0.32200        0.33480        0.71610
H          0.53160       -1.12380       -0.26280
H          0.53920        0.46960       -1.03450
H          2.22140        1.93260        1.06690
H          2.53020        2.06290       -0.67010
H          3.83570        1.60420        0.43530
H          2.20960       -0.39660        2.19410
H          3.82440       -0.69960        1.55140
H          2.51230       -1.84190        1.21970
H          2.73410       -0.06310       -2.09450
H          2.72440       -1.64050       -1.33230
H          6.76580       -0.57250       -1.08280
