18
56	2
C          0.78400        0.28530       -0.11290
C          2.31270        0.26100        0.10160
C          2.98820        0.08320       -1.27500
C          2.73070        1.60610        0.73320
N          2.64810       -0.85700        0.99240
C          3.91130       -1.17380        1.39460
O          4.88030       -0.52790        1.02910
H          0.48900        1.12090       -0.78440
H          0.25610        0.41500        0.85680
H          0.43910       -0.66730       -0.57040
H          2.69520        0.90620       -1.96230
H          2.68120       -0.88160       -1.73320
H          4.09380        0.09480       -1.20040
H          2.43360        2.45350        0.07800
H          3.82680        1.67340        0.88120
H          2.23830        1.73770        1.72070
H          1.88310       -1.45270        1.34610
H          4.06240       -2.02070        2.05630
