13
86	1
C          0.98800       -0.03920        0.21430
C          2.49870        0.00120       -0.00670
F          2.99140       -1.29090       -0.06020
F          2.76010        0.62830       -1.21230
C          3.18770        0.75010        1.09830
N          3.10830        0.33330        2.31400
N          3.73430        1.00030        3.34050
H          0.50200       -0.58990       -0.61880
H          0.57570        0.99210        0.24700
H          0.74560       -0.55690        1.16710
H          3.76050        1.64330        0.85970
H          3.65360        0.64440        4.30310
H          4.28520        1.85430        3.16340
