17
137	1
C          0.85000        0.02940        0.02750
C          2.38430       -0.03270       -0.06710
C          3.00300        0.38700        1.28030
N          2.78360       -1.41390       -0.37980
C          2.83720        0.95050       -1.14600
F          2.54840        2.27060       -0.98160
C          3.49980        0.58230       -2.25340
H          0.47750       -0.65890        0.81670
H          0.39260       -0.27060       -0.94040
H          0.50750        1.05730        0.27600
H          2.67540       -0.29890        2.09100
H          2.69540        1.41950        1.55340
H          4.11260        0.35650        1.22350
H          2.41960       -2.07050        0.34980
H          3.82710       -1.49840       -0.37760
H          3.75870       -0.44970       -2.45880
H          3.78920        1.33430       -2.98010
