20
133	1
C          2.93240       -1.57960       -0.11290
C          2.48510       -0.13890        0.04000
C          1.48940        0.12580        0.91360
C          3.17960        0.96780       -0.79510
C          3.00790        0.67000       -2.29910
C          2.61180        2.38340       -0.53930
N          4.61280        1.00460       -0.47840
H          2.36200       -2.27020        0.54480
H          4.00310       -1.68230        0.15410
H          2.77960       -1.92450       -1.15490
H          1.02720       -0.67410        1.48410
H          1.11160        1.12460        1.08600
H          1.93080        0.63840       -2.57090
H          3.47160       -0.29840       -2.57810
H          3.50410        1.45450       -2.91080
H          1.53320        2.43520       -0.80330
H          3.14980        3.13460       -1.15790
H          2.74380        2.67610        0.52450
H          5.08660        0.11290       -0.74850
H          4.75080        1.15820        0.54750
