12
155	1
C          1.00570        0.02550        0.09870
C          2.50880       -0.17840       -0.06880
F          3.17790        0.60000        0.85850
F          2.80560       -1.50960        0.17950
C          2.94050        0.24090       -1.45600
F          2.73610        1.52780       -1.84640
C          3.52010       -0.60960       -2.31240
H          0.69860       -0.26920        1.12450
H          0.44890       -0.59930       -0.63230
H          0.73640        1.09230       -0.05700
H          3.70550       -1.64530       -2.04760
H          3.81540       -0.26560       -3.29840
