17
114	1
C          2.88130       -1.44740       -0.28080
C          2.47850       -0.01280        0.07170
F          1.09570        0.06950        0.11210
C          3.08960        0.49750        1.40320
C          2.71370        1.97260        1.61110
C          2.61630       -0.32140        2.61650
F          4.47110        0.41510        1.32690
H          2.44880       -1.71950       -1.26680
H          2.49800       -2.17110        0.46660
H          3.98630       -1.53590       -0.34710
H          2.84160        0.64010       -0.75250
H          1.61190        2.09530        1.68930
H          3.08050        2.58780        0.76180
H          3.17880        2.36200        2.54210
H          1.51020       -0.28100        2.71360
H          3.06690        0.08240        3.54840
H          2.93220       -1.38080        2.53460
