10
95	1
C          0.88650        0.00230        0.04930
C          2.34910        0.00230        0.04930
C          3.55450        0.00230        0.04930
C          5.01740        0.00230        0.04930
F          5.47800        1.07120       -0.69510
F          5.47800        0.11260        1.34720
F          5.47800       -1.17680       -0.50410
H          0.51700       -0.25100        1.06430
H          0.51700       -0.75000       -0.67750
H          0.51700        1.00790       -0.23880
