14
121	1
C          0.99940       -0.20560       -0.16440
C          2.52160       -0.01510       -0.10520
C          3.19720       -1.31710        0.34750
C          3.07400        0.45080       -1.46580
F          2.48010        1.64510       -1.83470
F          4.44020        0.65380       -1.37820
F          2.82400       -0.49500       -2.44570
H          0.61270       -0.50810        0.83220
H          0.72700       -0.98940       -0.90360
H          0.50030        0.74440       -0.45040
H          2.74370        0.77170        0.64940
H          2.99840       -2.13810       -0.37450
H          2.81310       -1.62080        1.34470
H          4.29530       -1.17480        0.43350
