20
165	1
C          0.94490       -0.29370        0.20170
C          2.46010       -0.18480       -0.01710
C          2.97920       -1.48520       -0.65070
C          2.77050        1.05960       -0.88310
C          4.27410        1.32670       -1.07460
C          4.50010        2.59130       -1.90030
F          4.88580        1.47960        0.15830
H          0.71100       -1.16160        0.85480
H          0.41510       -0.42270       -0.76690
H          0.56060        0.62220        0.69940
H          2.93780       -0.06130        0.97980
H          2.52620       -1.64110       -1.65340
H          2.72190       -2.35210       -0.00510
H          4.08290       -1.47180       -0.75000
H          2.32850        1.95000       -0.38260
H          2.28660        0.94730       -1.87900
H          4.75170        0.48220       -1.61230
H          4.05810        3.47310       -1.38910
H          4.03800        2.48390       -2.90480
H          5.58950        2.76460       -2.02880
