22
177	1
C          2.36890        1.34860       -0.59500
C          3.75520        1.22580        0.05050
C          3.67920        1.73940        1.49790
N          4.19120       -0.18570       -0.02170
C          5.51550       -0.49940        0.55530
C          5.72950       -2.01580        0.50580
C          6.65950        0.21220       -0.18660
H          2.02370        2.40470       -0.57680
H          1.63000        0.71890       -0.05370
H          2.40770        1.01880       -1.65500
H          4.44460        1.87510       -0.53000
H          2.99940        1.10180        2.10290
H          3.29810        2.78300        1.51150
H          4.67950        1.76330        1.97380
H          4.18350       -0.49060       -1.02470
H          5.54570       -0.21730        1.62710
H          5.72280       -2.38080       -0.54400
H          4.91960       -2.52960        1.06640
H          6.70150       -2.28550        0.97190
H          6.66200       -0.06590       -1.26230
H          7.63660       -0.07380        0.25820
H          6.57070        1.31340       -0.09670
