14
148	1
C          0.92560        0.09250        0.03430
C          2.45690        0.07640       -0.02640
C          3.02350       -0.89760        1.01230
F          2.84190       -0.35350       -1.28750
C          2.99590        1.46500        0.22290
O          2.74330        2.08750        1.39520
O          3.66130        2.02840       -0.63400
H          0.52260       -0.92290       -0.16810
H          0.51980        0.78680       -0.73250
H          0.57110        0.42070        1.03540
H          2.64580       -1.92500        0.82170
H          2.72830       -0.59740        2.04110
H          4.13290       -0.91830        0.95190
H          3.08050        2.97710        1.57240
