16
105	1
C          0.92260        0.06930        0.04360
C          2.46340        0.06850        0.05040
C          2.97070       -1.32640       -0.37010
N          2.94640        1.08340       -0.89460
C          2.97020        0.40420        1.47160
F          4.35420        0.39570        1.51490
F          2.52470        1.65540        1.86270
H          0.53620       -0.17340       -0.96970
H          0.52970        1.06810        0.33030
H          0.52490       -0.68400        0.75810
H          2.60370       -1.58470       -1.38690
H          2.61310       -2.10470        0.33820
H          4.08120       -1.35260       -0.38850
H          2.62280        0.85880       -1.86340
H          3.99140        1.10600       -0.90450
H          2.59540       -0.34690        2.20050
