14
175	1
C          1.04470        0.55470        0.55980
C          2.43560        0.15080        0.07720
F          3.19690       -0.23310        1.16870
C          2.35180       -1.00200       -0.93430
C          3.73240       -1.41430       -1.44790
F          3.59800       -2.46090       -2.34170
F          4.34390       -0.35220       -2.09020
H          1.12880        1.39140        1.28520
H          0.54430       -0.30160        1.06030
H          0.42150        0.89030       -0.29650
H          2.91300        1.03360       -0.40080
H          1.72810       -0.69060       -1.80090
H          1.87210       -1.88160       -0.45170
H          4.37340       -1.74860       -0.60490
