21
127	1
C          2.99770        0.99430        1.10330
C          2.60500        0.07850       -0.04100
C          1.62220        0.49280       -0.87080
C          3.33060       -1.28060       -0.22000
C          3.12860       -2.14400        1.04290
C          2.81500       -2.09640       -1.43200
C          4.83970       -1.03650       -0.43050
H          2.40180        1.93220        1.11630
H          4.06260        1.28870        1.01820
H          2.83280        0.49260        2.07740
H          1.13510        1.45090       -0.71610
H          1.27800       -0.09410       -1.71150
H          2.04670       -2.32960        1.21720
H          3.55270       -1.65540        1.94430
H          3.63790       -3.12630        0.93430
H          1.73560       -2.33650       -1.31950
H          3.36240       -3.06010       -1.52090
H          2.96840       -1.53840       -2.38110
H          5.29690       -0.52640        0.44230
H          5.00950       -0.41180       -1.33400
H          5.37960       -1.99890       -0.56550
