18
134	1
C          0.97590       -0.04770        0.09660
C          2.50880       -0.03980       -0.05510
C          3.16780       -0.31960        1.31230
N          2.88670       -1.10830       -0.99400
C          2.94950        1.34210       -0.56940
N          2.68950        2.50180        0.21020
N          3.54500        1.48800       -1.70460
H          0.62430       -1.03470        0.46730
H          0.49310        0.14650       -0.88550
H          0.63290        0.72530        0.81600
H          2.85980       -1.31640        1.69530
H          2.87640        0.43750        2.06970
H          4.27490       -0.30990        1.21730
H          2.53430       -2.03350       -0.65410
H          3.92900       -1.18250       -1.05700
H          2.21040        2.43710        1.11870
H          2.97950        3.43000       -0.13100
H          3.76210        0.70620       -2.33650
