21
98	1
C          2.81960        0.11920        1.42220
C          2.39660       -0.06720       -0.04890
O          0.99230       -0.12860       -0.13960
C          2.98400        0.98200       -1.05920
C          2.51410        0.61850       -2.48530
C          2.51540        2.41900       -0.73730
C          4.52890        0.94930       -1.04260
H          2.37510       -0.69180        2.03730
H          2.46380        1.08880        1.82670
H          3.91970        0.05620        1.53960
H          2.77820       -1.06920       -0.34620
H          0.61430        0.65810        0.33210
H          1.40610        0.65270       -2.56140
H          2.85070       -0.40420       -2.76160
H          2.92720        1.33140       -3.23170
H          1.40950        2.50310       -0.78000
H          2.93290        3.13820       -1.47500
H          2.85750        2.73860        0.26860
H          4.90280       -0.07080       -1.27640
H          4.93410        1.25850       -0.05760
H          4.94330        1.65070       -1.79920
