22
97	1
C          2.96260       -0.55130        1.27960
C          2.52380        0.08270       -0.05640
N          1.05900        0.06020       -0.15200
C          3.08690        1.52950       -0.31610
C          2.60850        2.01330       -1.70430
C          2.61210        2.54510        0.74890
C          4.63290        1.51650       -0.32780
H          2.55020       -1.57970        1.35750
H          2.58860        0.03130        2.14610
H          4.06490       -0.64030        1.34560
H          2.91980       -0.57270       -0.86550
H          0.62850        0.54400        0.66850
H          0.72320       -0.93070       -0.15000
H          1.50020        2.07390       -1.74840
H          2.95140        1.31940       -2.50210
H          3.01040        3.02490       -1.93090
H          1.50630        2.63220        0.76480
H          3.01940        3.55590        0.52930
H          2.96180        2.26060        1.76250
H          5.01440        0.80140       -1.08840
H          5.04880        1.23760        0.66170
H          5.03110        2.52530       -0.57270
