11
124	1
C          0.95230       -0.06910        0.10660
C          2.43100        0.11960       -0.23070
F          2.59020        0.09230       -1.60570
C          2.98000        1.43940        0.31920
F          2.29410        2.51070       -0.22600
F          2.85530        1.47290        1.69690
F          4.31890        1.55290       -0.00860
H          0.59750       -1.03790       -0.30410
H          0.34350        0.74720       -0.33700
H          0.80230       -0.07810        1.20700
H          3.00800       -0.72240        0.20930
