15
280	1
C          2.11630        0.08980       -1.51500
C          2.74670        0.11750       -0.12640
F          1.79770        0.52380        0.79410
C          3.21970       -1.26940        0.25000
C          4.48670       -1.63640        0.54420
C          5.68440       -0.72090        0.54970
F          4.70860       -2.93970        0.86180
H          1.74190        1.10200       -1.77750
H          1.26300       -0.62160       -1.54250
H          2.87000       -0.21700       -2.27170
H          3.54430        0.87770       -0.13980
H          2.45810       -2.04400        0.28710
H          5.48970        0.33110        0.28790
H          6.43130       -1.10930       -0.17340
H          6.13670       -0.73340        1.56300
