19
185	1
C          0.85810       -0.05150       -0.41800
C          2.21270        0.54740        0.00030
C          2.14330        2.07650       -0.11290
C          2.60060        0.14920        1.44490
C          2.88180       -1.32250        1.65170
C          3.24820       -1.81600        3.01800
O          2.83450       -2.11170        0.71990
H          0.61170        0.25440       -1.45730
H          0.04970        0.30350        0.25680
H          0.87170       -1.15860       -0.39410
H          3.00240        0.19240       -0.69850
H          1.36800        2.48820        0.56900
H          1.89800        2.37500       -1.15460
H          3.12440        2.52690        0.14980
H          1.79020        0.46550        2.13760
H          3.52900        0.69120        1.72910
H          4.16920       -1.30310        3.36590
H          3.43250       -2.91160        3.00480
H          2.42090       -1.60150        3.72610
