17
216	1
C          0.84430       -0.33580       -0.01300
C          2.37370       -0.20870       -0.10450
C          2.86200       -0.87930       -1.39540
N          2.78790        1.19090       -0.08050
C          2.61270        1.99310        1.00900
N          3.02050        3.28390        0.97350
O          2.09930        1.55390        2.02830
H          0.54840       -1.40630       -0.03850
H          0.36130        0.18910       -0.86510
H          0.45350        0.09330        0.93080
H          2.84360       -0.74430        0.75020
H          2.42240       -0.38220       -2.28710
H          2.57630       -1.95300       -1.40530
H          3.96910       -0.81430       -1.46000
H          3.25610        1.58600       -0.91160
H          3.46010        3.67450        0.12710
H          2.89490        3.89250        1.79600
