18
191	1
C          0.87440       -0.93440       -0.09560
C          2.29400       -0.34300       -0.09750
N          3.27470       -1.38220       -0.41850
C          2.42820        0.81420       -1.10770
C          1.51580        1.97790       -0.78340
N          1.67060        2.68180        0.43810
N          0.60350        2.34550       -1.61290
H          0.80790       -1.76160        0.64250
H          0.61580       -1.33150       -1.10060
H          0.12770       -0.16320        0.18760
H          2.51910        0.03880        0.92230
H          3.06830       -1.79780       -1.35650
H          3.22930       -2.14250        0.29860
H          2.21670        0.42380       -2.12780
H          3.47460        1.18870       -1.10060
H          2.40970        2.41780        1.10510
H          1.05410        3.47660        0.66190
H          0.46210        1.86120       -2.51160
