14
205	1
C          0.98910       -0.44030       -0.25680
C          2.46630       -0.07040       -0.09450
F          3.02880        0.01690       -1.35650
C          2.66830        1.27680        0.62420
C          2.24860        1.30080        2.07370
O          2.38560        2.44390        2.77790
O          1.80980        0.30000        2.62170
H          0.90750       -1.40350       -0.80350
H          0.45960        0.34280       -0.84010
H          0.48390       -0.55990        0.72200
H          2.99560       -0.87310        0.46330
H          2.11580        2.06720        0.07160
H          3.75030        1.52830        0.59540
H          2.13380        2.49040        3.71120
