12
269	1
N          3.64310        0.20060       -1.56570
C          3.87940       -0.76300       -0.54090
N          3.34900       -1.92930       -0.63660
O          4.68320       -0.50300        0.52980
C          5.10490        0.70540        0.99440
N          6.05150        0.74840        1.95730
O          4.61630        1.74760        0.58540
H          3.02830       -0.03200       -2.35930
H          4.12160        1.10890       -1.58170
H          2.74450       -2.18090       -1.43260
H          6.45950       -0.12440        2.32240
H          6.37400        1.65180        2.33500
