15
207	1
C          0.87330       -0.11030       -0.10990
C          2.35270       -0.37600       -0.24580
C          2.77930       -1.39100       -1.01650
C          3.35950        0.51450        0.46090
C          3.24530        0.46380        1.98660
F          4.25170        1.23120        2.54430
F          2.02990        0.96480        2.41410
H          0.26610       -0.81800       -0.71430
H          0.64980        0.92010       -0.45690
H          0.55180       -0.22070        0.94420
H          2.07360       -2.03160       -1.53670
H          3.83900       -1.59470       -1.13620
H          3.22880        1.56180        0.11360
H          4.39450        0.20180        0.19820
H          3.36100       -0.58250        2.34130
