14
260	2
C          1.84910        0.86960       -0.63170
C          3.30960        0.52460       -0.62480
O          4.12540        1.42830       -0.67440
N          3.68840       -0.78760       -0.56320
C          5.03590       -1.30510       -0.54710
N          6.19350       -0.47390       -0.59610
N          5.21040       -2.57870       -0.48560
H          1.70240        1.96980       -0.68440
H          1.37190        0.49050        0.29620
H          1.35960        0.40230       -1.51180
H          2.92770       -1.48410       -0.52390
H          6.16350        0.54720       -0.64650
H          7.12600       -0.91290       -0.58100
H          4.41440       -3.23220       -0.44790
