18
223	1
C          1.14690        0.57030       -0.15860
N          2.47000        0.16820        0.34380
C          2.72020        0.80610        1.64840
C          2.54900       -1.30370        0.43740
C          3.95650       -1.75740        0.75190
N          5.01800       -1.41570       -0.12300
N          4.20200       -2.45200        1.80650
H          1.09760        1.67500       -0.27130
H          0.33640        0.24060        0.52980
H          0.96700        0.13190       -1.16370
H          2.65920        1.91190        1.55290
H          3.74500        0.57360        2.00670
H          1.98400        0.46790        2.41130
H          2.27920       -1.75680       -0.54210
H          1.82420       -1.68280        1.19420
H          4.83580       -0.85890       -0.97050
H          5.98090       -1.71890        0.08330
H          3.45480       -2.71820        2.46430
