18
214	2
C          0.93950        0.12550       -0.14500
C          2.46220        0.08780        0.00140
C          3.06180        1.47690       -0.22700
N          2.81050       -0.37810        1.33630
C          3.53830       -1.50770        1.56150
C          3.85610       -1.92150        2.96700
O          3.93790       -2.19170        0.62980
H          0.65870        0.47380       -1.16190
H          0.48970        0.80970        0.60640
H          0.52200       -0.89300        0.00470
H          2.86330       -0.58980       -0.78420
H          2.67330        2.20020        0.52200
H          2.80900        1.84310       -1.24500
H          4.16790        1.42870       -0.13620
H          2.48960        0.17500        2.14680
H          4.43930       -1.12080        3.46820
H          4.45310       -2.85850        2.97680
H          2.91310       -2.09240        3.52720
