14
329	1
N          1.04550       -0.08140        0.00460
C          2.50720       -0.08010        0.00400
C          3.18110        0.99390        0.86510
C          4.21580       -0.07130        1.23280
F          4.67060       -0.05730        2.53940
F          5.25190       -0.08710        0.31020
C          3.17180       -1.13640        0.89130
H          0.71550        0.77210       -0.50030
H          0.67980       -0.04100        0.98360
H          2.95050       -0.09910       -1.01970
H          2.55450        1.19810        1.76550
H          3.52600        1.93010        0.37760
H          2.54300       -1.31230        1.79620
H          3.50880       -2.08790        0.42820
