17
371	1
C          1.05080       -0.07940       -0.03220
C          2.59240       -0.07260       -0.03820
C          3.08860        0.21070       -1.47010
C          3.10000        1.03290        0.91400
F          4.48410        1.07470        0.93560
C          3.11830       -1.45120        0.41920
F          2.69140       -1.74610        1.70320
H          0.65290        0.90210       -0.36990
H          0.65960       -0.27720        0.98890
H          0.65900       -0.86580       -0.71310
H          2.72100        1.19780       -1.82490
H          2.72350       -0.56910       -2.17310
H          4.19910        0.21820       -1.51010
H          2.73770        0.85370        1.94920
H          2.72360        2.02690        0.58890
H          4.22930       -1.47000        0.40530
H          2.75570       -2.24990       -0.26360
