11
293	1
C          0.86840        0.05760       -0.04930
C          2.36570       -0.04720        0.02720
O          2.97900        0.78100        0.68270
C          3.13520       -1.11840       -0.66170
C          2.59120       -2.08950       -1.41350
F          1.25140       -2.18060       -1.61640
F          3.40180       -3.01340       -1.99250
H          0.50770        0.92880        0.53850
H          0.40240       -0.85880        0.36920
H          0.55130        0.19660       -1.10400
H          4.21570       -1.11180       -0.54630
