19
286	1
C          0.98880       -0.17850       -0.17080
C          2.43320        0.23480       -0.01290
C          2.72750        1.71090       -0.08130
C          3.37570       -0.72970        0.17920
C          4.86250       -0.57390        0.36120
C          5.58120        0.75530        0.35880
C          5.59280       -1.69000        0.53670
H          0.61240        0.16290       -1.15810
H          0.38000        0.29200        0.62970
H          0.84420       -1.27840       -0.11020
H          1.79210        2.28750       -0.24450
H          3.39170        1.93820       -0.93720
H          3.15620        2.06900        0.87440
H          3.01560       -1.75590        0.20650
H          5.22020        1.39120        1.18970
H          5.45520        1.26080       -0.61780
H          6.67590        0.63640        0.50960
H          5.12460       -2.67010        0.54660
H          6.66910       -1.64250        0.67320
