20
316	1
C          1.04410       -0.04050        0.14650
C          2.57030       -0.04810        0.11620
C          3.29950        1.02600        0.93400
C          4.34250       -0.04880        1.29110
C          4.86150       -0.04900        2.73320
N          5.46360       -0.06930        0.33580
C          3.28910       -1.11720        0.94990
H          0.66610        0.86120       -0.37920
H          0.66960       -0.03070        1.19210
H          0.65750       -0.94630       -0.36540
H          2.96440       -0.05720       -0.92500
H          2.69160        1.25040        1.84210
H          3.62920        1.95540        0.42280
H          5.48600        0.85150        2.91260
H          5.47530       -0.95690        2.91210
H          4.01890       -0.04250        3.45700
H          6.04100        0.79350        0.46350
H          5.15340       -0.09770       -0.66120
H          2.67760       -1.32220        1.86020
H          3.61000       -2.05770        0.45340
