19
285	1
C          1.88100       -0.66440       -0.81480
N          3.27100       -0.26460       -0.83340
C          3.90260       -0.25370       -2.13980
N          3.62060        0.74970        0.03180
C          4.67330        0.69290        0.78110
C          5.56000       -0.52840        0.81490
C          4.99710        1.85470        1.67270
H          1.74210       -1.61730       -1.36960
H          1.25040        0.12610       -1.27530
H          1.55020       -0.82710        0.23310
H          3.75060       -1.22700       -2.65330
H          4.99250       -0.07450       -2.05510
H          3.46830        0.55910       -2.76080
H          4.96410       -1.41300        1.12300
H          6.38670       -0.39300        1.54410
H          6.01460       -0.72050       -0.17560
H          4.25340        2.67110        1.55000
H          6.00280        2.24970        1.41790
H          4.99170        1.52490        2.73270
