14
353	1
C          0.87420        0.01480       -0.25000
C          2.39170       -0.00730       -0.05390
N          2.90240       -0.01090        1.31250
C          3.17940       -0.92120       -0.97920
C          3.30200        0.61400       -1.08280
F          2.67040        1.20000       -2.16690
F          4.47120        1.16530       -0.58550
H          0.41560       -0.84340        0.28270
H          0.59660       -0.04920       -1.32260
H          0.46330        0.95690        0.16660
H          2.49330       -0.82660        1.82280
H          2.58550        0.86440        1.78730
H          2.71860       -1.26260       -1.93050
H          4.17370       -1.29440       -0.65220
