18
318	1
C          0.86780        0.07590        0.14890
C          2.40100        0.07450        0.05520
N          2.85270        0.04710       -1.33930
C          3.14030        1.16040        0.85370
C          4.16700        0.09770        1.28120
O          5.31790        0.07920        0.46250
C          3.14010       -0.97980        0.89490
H          0.45590        0.96430       -0.37480
H          0.53560        0.10640        1.20820
H          0.45850       -0.84270       -0.32190
H          2.48550        0.88680       -1.84320
H          2.48610       -0.81180       -1.81000
H          2.53760        1.40920        1.75850
H          3.49090        2.07900        0.33660
H          4.47990        0.11830        2.34730
H          5.07420        0.07880       -0.49490
H          2.53670       -1.19460        1.80780
H          3.49120       -1.91620        0.41110
