13
310	1
C          0.94970        0.13860        0.06720
C          2.43930        0.29190       -0.03820
F          2.95030        0.88350       -1.15150
C          3.25090       -0.14410        0.94230
C          4.72630       -0.00780        0.86890
F          5.31710        0.57230       -0.21060
C          5.49590       -0.45450        1.86540
H          0.58400       -0.47210       -0.78420
H          0.47520        1.14080        0.02300
H          0.64340       -0.35600        1.01400
H          2.81650       -0.61360        1.82180
H          5.05930       -0.92300        2.74260
H          6.57470       -0.35220        1.80650
