21
382	1
C          2.96710        0.03010       -1.33840
C          2.45180        0.15100        0.09800
C          2.99210       -0.94720        1.06240
C          2.35860       -0.75280        2.45830
O          2.63060       -2.22040        0.57760
C          4.54460       -0.93360        1.17860
C          5.16490        0.38080        1.66620
H          2.50060        0.82070       -1.96310
H          2.70020       -0.95900       -1.76640
H          4.06610        0.16870       -1.38460
H          1.34220        0.08090        0.06140
H          2.69980        1.16260        0.48350
H          1.25190       -0.83030        2.39660
H          2.59640        0.24510        2.88020
H          2.71870       -1.53530        3.16010
H          1.64050       -2.25880        0.50500
H          4.99170       -1.17750        0.19200
H          4.85700       -1.74160        1.87640
H          4.93920        1.21310        0.96930
H          6.26860        0.26650        1.71010
H          4.81310        0.64200        2.68420
