19
369	1
C          1.06580       -0.02460       -0.06520
C          2.60770       -0.03000       -0.11410
C          3.05520       -0.56580       -1.49060
C          3.10930        1.42480        0.07830
O          4.50920        1.50970       -0.00820
C          3.12960       -0.95410        1.01780
O          4.53200       -1.02440        1.03850
H          0.64770        0.62380       -0.86550
H          0.70410        0.35720        0.91420
H          0.66290       -1.05090       -0.20710
H          2.65810        0.07480       -2.30760
H          2.68250       -1.60120       -1.64730
H          4.16230       -0.58040       -1.57610
H          2.74670        1.83200        1.05260
H          2.68130        2.08370       -0.70810
H          4.85750        1.61460        0.91550
H          2.69790       -1.97820        0.91660
H          2.78890       -0.57560        2.00580
H          4.79490       -1.79640        0.47250
