15
357	1
C          0.95650        0.00870       -0.08140
C          2.48340       -0.06350        0.00850
F          3.04460       -0.18800        1.26870
C          3.25880       -0.75520       -1.12280
C          3.33880        0.76380       -0.92550
C          2.77080        1.58110       -2.08760
F          4.56710        1.15280       -0.41950
H          0.52730       -0.89420        0.40010
H          0.57790        0.04420       -1.12150
H          0.59940        0.90620        0.46480
H          2.52590       -1.15850       -1.85410
H          4.02300       -1.40260       -0.64250
H          1.85790        1.13870       -2.53210
H          3.53600        1.64920       -2.88870
H          2.53780        2.60590       -1.73180
