10
311	1
F          0.70960        0.04040       -0.16820
C          2.05240       -0.13950       -0.06700
F          2.52480       -1.24150        0.57430
C          2.88290        0.76740       -0.59810
C          4.35810        0.63420       -0.52450
F          4.92760       -0.43390        0.09670
C          5.14790        1.56400       -1.06860
H          2.45540        1.63120       -1.10070
H          4.72760        2.42980       -1.57220
H          6.22680        1.46150       -1.01180
