15
430	1
C          1.04090       -0.01430       -0.07770
C          2.58100       -0.00140       -0.06460
C          3.08840        1.45060       -0.14710
C          3.09670       -0.66910        1.22320
F          4.47430       -0.58350        1.29630
C          3.07460       -0.75730       -1.22700
N          3.46000       -1.35420       -2.13780
H          0.64390        0.55510        0.79050
H          0.65230       -1.05430       -0.01990
H          0.64990        0.45200       -1.00690
H          2.73790        2.03210        0.73120
H          2.71940        1.94590       -1.06880
H          4.19800        1.48140       -0.16460
H          2.80640       -1.74360        1.25880
H          2.66560       -0.16640        2.11660
