18
433	1
C          1.14090        0.00650       -0.24680
C          2.59630       -0.02780        0.25820
N          3.50490        0.31450       -0.84760
C          2.76890        1.00390        1.39500
O          4.07710        0.98070        1.90400
C          2.88060       -1.41810        0.81880
C          3.85950       -2.22210        0.37910
H          0.88930        1.01280       -0.64560
H          0.43130       -0.23010        0.57570
H          0.99380       -0.73770       -1.05910
H          3.31240        1.28660       -1.18440
H          3.34950       -0.33030       -1.65740
H          2.06920        0.77810        2.22910
H          2.51250        2.03100        1.04460
H          4.62950        1.54760        1.30490
H          2.25380       -1.77720        1.63100
H          4.52980       -1.93070       -0.42100
H          3.99710       -3.19710        0.83530
