15
400	1
C          1.06340        0.28010       -0.17130
C          2.50870       -0.18270        0.06620
F          3.33250        0.44560       -0.85420
C          2.96980        0.18760        1.49070
O          2.89770        1.57270        1.70310
C          2.60640       -1.70150       -0.14700
F          3.91200       -2.13180        0.01480
H          0.98170        1.38160       -0.05440
H          0.37120       -0.20670        0.54920
H          0.74170        0.02210       -1.20300
H          4.00980       -0.16700        1.67610
H          2.32450       -0.31520        2.24320
H          3.70200        1.97000        1.27810
H          2.27940       -1.96340       -1.17610
H          1.95720       -2.24100        0.57600
