20
465	1
C          2.96100        1.29980        0.15300
N          2.44100       -0.05820        0.36140
C          2.99100       -0.76730        1.54210
C          2.60320       -0.02480        2.84650
C          2.34090       -2.16310        1.60230
C          4.49920       -0.97600        1.37270
C          5.43370       -0.53710        2.22890
H          2.53880        1.70990       -0.78880
H          4.06800        1.30130        0.06270
H          2.64110        1.97960        0.96740
H          2.64680       -0.61210       -0.50430
H          1.50000        0.09380        2.90940
H          3.06100        0.98330        2.90500
H          2.93890       -0.59710        3.73840
H          1.23640       -2.07620        1.69320
H          2.72200       -2.73860        2.47420
H          2.56360       -2.74420        0.68100
H          4.83600       -1.51820        0.49280
H          5.18520        0.01160        3.12870
H          6.48100       -0.73300        2.02310
