10
461	1
O          0.98630        0.07230        0.10160
C          2.38750        0.09770        0.07300
C          2.91220       -0.89690       -0.96360
F          4.29490       -0.87790       -0.95650
F          2.47950       -2.17230       -0.64740
C          2.44180       -0.55000       -2.31090
N          2.07310       -0.27980       -3.37410
H          0.71510        0.68930        0.83010
H          2.78600       -0.19420        1.07060
H          2.74250        1.12180       -0.18220
