12
410	1
O          2.75500        0.63900       -1.21160
C          2.32000        0.00380       -0.04070
C          2.86860       -1.42510        0.02200
F          2.39050       -2.03750        1.16800
F          2.42360       -2.13560       -1.08020
C          4.39860       -1.44150        0.05150
F          4.85280       -2.74620        0.12170
H          2.36540        1.55150       -1.19040
H          1.20810       -0.04490       -0.03680
H          2.66890        0.57110        0.85150
H          4.77100       -0.88540        0.93830
H          4.81110       -0.97100       -0.86620
