19
415	1
C          2.92220       -0.64410        1.12780
N          2.54700        0.14670       -0.05160
C          3.11230        1.51720       -0.13860
C          2.63550        2.12990       -1.47220
C          2.60790        2.40860        1.01990
C          4.66020        1.48170       -0.14250
F          5.18740        2.75060       -0.31810
H          2.43150       -1.63820        1.06370
H          2.58010       -0.16540        2.06770
H          4.01350       -0.83220        1.15840
H          1.50090        0.19650       -0.08340
H          1.52550        2.17440       -1.50890
H          2.98420        1.51280       -2.32830
H          3.02300        3.16320       -1.60410
H          1.49730        2.43890        1.03340
H          2.98080        3.44930        0.90600
H          2.96410        2.03920        2.00300
H          5.02480        0.83130       -0.96640
H          5.05720        1.08920        0.81550
