16
403	1
C          1.17820        0.13880       -0.24450
C          2.69130        0.14660       -0.04060
C          3.12310       -0.79700        1.09500
F          2.51670       -0.40130        2.27600
F          2.72530       -2.09290        0.80710
C          4.64530       -0.76530        1.29800
N          5.35350       -1.19900        0.09620
H          0.91360        0.83190       -1.07050
H          0.65940        0.47320        0.67870
H          0.82840       -0.88080       -0.51190
H          3.01280        1.18410        0.19770
H          3.17440       -0.16370       -0.99230
H          4.91700       -1.43010        2.14750
H          4.95950        0.27050        1.55390
H          5.11330       -2.19580       -0.10750
H          6.38100       -1.15240        0.28150
