15
447	1
C          2.93010       -0.16900        1.36870
C          2.52270       -0.10620       -0.10620
C          3.07520        1.13730       -0.83660
C          2.57540        1.16300       -2.28500
F          2.63060        2.28340       -0.19870
C          4.51920        1.13730       -0.83660
N          5.67020        1.13730       -0.83660
H          2.48630       -1.07280        1.83680
H          2.56100        0.72670        1.91170
H          4.03390       -0.22950        1.47230
H          1.41150       -0.08760       -0.15040
H          2.87300       -1.03180       -0.61510
H          1.46490        1.19250       -2.30700
H          2.91640        0.26070       -2.83850
H          2.95390        2.06690       -2.81010
