21
580	1
C          2.69430       -1.19110        0.40500
C          2.98980        0.30000        0.26780
C          2.38890        0.87110       -1.01570
O          2.69730        2.24760       -1.09030
C          2.06000        2.85050       -2.20380
C          0.77650        3.54870       -1.74660
C          3.02530        3.85910       -2.82510
H          3.14380       -1.57440        1.34520
H          3.12800       -1.75120       -0.45070
H          1.59780       -1.36620        0.43800
H          4.09110        0.45180        0.25830
H          2.56430        0.83590        1.14400
H          1.28630        0.71420       -0.98350
H          2.83330        0.33220       -1.88360
H          1.80540        2.11870       -3.00940
H          1.00450        4.31170       -0.97180
H          0.07020        2.80770       -1.31750
H          0.28000        4.04500       -2.60770
H          3.30970        4.63480       -2.08200
H          2.55680        4.35400       -3.70270
H          3.94540        3.33760       -3.16470
