14
555	1
F          0.77320        0.92550        0.77700
C          1.36230       -0.29890        1.02940
C          2.87100       -0.16140        1.25540
C          3.66700        0.27110        0.00970
C          3.34520        1.68010       -0.49530
F          3.56490        2.60990        0.50520
F          4.16360        1.97750       -1.56960
H          1.15840       -0.99590        0.18910
H          0.89780       -0.71300        1.94910
H          3.25230       -1.16150        1.55640
H          3.06000        0.54100        2.09570
H          3.49850       -0.46070       -0.81010
H          4.74650        0.24550        0.27500
H          2.29510        1.75120       -0.83990
