18
491	1
C          2.85390        1.02130        0.96660
N          2.48970       -0.08930        0.07640
C          3.00660        0.00550       -1.30960
C          2.53850       -1.23800       -2.08610
C          2.49010        1.26800       -2.03250
C          4.45060        0.00550       -1.30960
C          5.64070        0.00550       -1.30960
H          2.50310        0.78990        1.99420
H          2.36310        1.96590        0.65280
H          3.95420        1.15860        1.01030
H          1.44470       -0.16290        0.06400
H          1.42850       -1.28030       -2.12250
H          2.90340       -2.16600       -1.59360
H          2.91850       -1.22260       -3.13160
H          1.37900        1.28100       -2.04350
H          2.84960        1.29100       -3.08460
H          2.85040        2.19680       -1.54350
H          6.69890        0.00570       -1.30930
