10
514	1
F          1.00310       -0.24570        0.18840
C          2.35660       -0.09950       -0.04840
F          2.99760       -1.26810        0.31650
C          2.56000        0.11100       -1.53500
C          3.13960        1.18790       -2.08560
C          2.85840        0.98490        0.81030
N          3.24760        1.82900        1.50020
H          2.20740       -0.67190       -2.19960
H          3.51530        2.01100       -1.48870
H          3.23860        1.24480       -3.16580
