21
541	1
C          1.43960        1.12170        0.33640
C          2.95290        0.90980        0.19350
N          3.66750        1.59770        1.27160
C          3.28950       -0.59380        0.19910
C          4.79160       -0.84580       -0.01340
C          5.13460       -2.33990        0.02220
N          4.44970       -3.06590       -1.04300
H          1.20240        2.20640        0.30560
H          1.07570        0.70400        1.29950
H          0.90080        0.62410       -0.49800
H          3.27150        1.34180       -0.78140
H          3.35690        1.23230        2.20200
H          3.46520        2.62320        1.23090
H          2.72270       -1.09100       -0.61850
H          2.97280       -1.03930        1.16820
H          5.36800       -0.34520        0.79400
H          5.11010       -0.41690       -0.98880
H          4.83820       -2.76250        1.00720
H          6.23450       -2.46410       -0.09310
H          4.78870       -2.71630       -1.96870
H          4.70540       -4.07730       -0.97070
