21
571	1
C          1.06300        0.00300        0.08260
C          2.58370        0.00860        0.11730
O          3.01800        1.02270        0.99710
C          4.43010        1.04550        1.03120
C          4.90380        2.13020        2.01340
C          4.39420        1.84990        3.43420
C          6.43520        2.21700        2.01220
H          0.70520       -0.79130       -0.60620
H          0.68690        0.98540       -0.27420
H          0.66000       -0.19320        1.09890
H          2.94690        0.19900       -0.91850
H          2.91950       -0.99300        0.47060
H          4.82980        1.29690        0.02150
H          4.83510        0.06180        1.36600
H          4.49980        3.11190        1.68010
H          4.77960        0.87560        3.80480
H          3.28400        1.82480        3.45220
H          4.72840        2.65240        4.12580
H          6.88460        1.25510        2.34110
H          6.77440        3.02270        2.69780
H          6.80580        2.45420        0.99210
