15
531	1
C          1.00940        0.07470        0.05160
C          2.54360        0.05900        0.04710
C          3.06200       -1.00290        1.02620
C          3.02990       -0.24240       -1.31190
C          3.42120       -0.50140       -2.42370
C          3.03900        1.37900        0.45910
C          3.43640        2.45930        0.81330
H          0.61080       -0.91300       -0.25910
H          0.61130        0.84220       -0.64660
H          0.61700        0.30130        1.06700
H          2.69960       -2.00980        0.73210
H          2.70790       -0.79560        2.05960
H          4.17240       -1.02600        1.04340
H          3.76580       -0.72610       -3.39920
H          3.78690        3.40700        1.12000
