19
573	1
C          1.31370        0.47360       -0.68230
C          2.81810        0.29690       -0.82010
O          3.36760        1.47000       -1.37910
C          4.76580        1.31820       -1.51310
C          5.37750        2.59010       -2.12100
C          4.84040        2.87790       -3.52880
O          5.17850        3.69550       -1.27500
H          0.86560       -0.44270       -0.24300
H          0.85890        0.65450       -1.67950
H          1.09100        1.33670       -0.01940
H          2.99820       -0.58030       -1.48270
H          3.23340        0.10980        0.19650
H          5.00600        0.46350       -2.18710
H          5.24030        1.15780       -0.51770
H          6.47380        2.42780       -2.20990
H          3.74420        3.05580       -3.50530
H          5.04980        2.01950       -4.20200
H          5.33790        3.78040       -3.94290
H          4.20460        3.88680       -1.24570
