13
512	1
F          1.12630       -0.02610       -0.15910
C          2.49850       -0.16310       -0.02740
F          3.07020        1.09540       -0.11960
C          2.78330       -0.80630        1.30710
C          3.50850       -0.20830        2.25990
C          3.07820       -1.02680       -1.11990
C          2.32840       -1.58190       -2.07960
H          2.38060       -1.79660        1.50170
H          3.93200        0.78010        2.11490
H          3.68250       -0.71640        3.20280
H          4.15030       -1.20350       -1.12710
H          1.25400       -1.43550       -2.11680
H          2.79740       -2.19470       -2.84260
