19
543	1
C          1.27150       -0.30770       -0.58660
C          2.80370       -0.33000       -0.49800
N          3.39400        0.21420       -1.72300
C          3.28170        0.47030        0.73240
C          4.81190        0.50480        0.90620
C          5.43760       -0.87220        1.14010
F          4.89680       -1.46390        2.26770
H          0.93070       -0.90540       -1.45870
H          0.89990        0.73340       -0.70080
H          0.82730       -0.74800        0.33150
H          3.11530       -1.39070       -0.38980
H          3.06880        1.19720       -1.87480
H          3.09910       -0.36470       -2.54300
H          2.82440        0.04310        1.65160
H          2.92800        1.52040        0.63540
H          5.04440        1.14220        1.78680
H          5.28240        0.97290        0.01500
H          6.53180       -0.75520        1.28910
H          5.28550       -1.53590        0.26480
