10
490	1
F          2.75730        1.21670       -0.64580
C          2.33880        0.02390       -0.08080
C          2.87990       -1.16350       -0.87440
F          2.43120       -2.34040       -0.30340
F          2.42680       -1.09510       -2.17940
C          4.32390       -1.16350       -0.87440
C          5.51400       -1.16350       -0.87440
H          1.22850       -0.00170       -0.08470
H          2.68780       -0.02310        0.97350
H          6.57230       -1.16330       -0.87430
