21
557	1
C          1.13490        0.10370       -0.09400
N          2.59050        0.02240        0.03400
C          2.97330       -0.40520        1.38420
C          4.50220       -0.48590        1.49350
C          4.96630       -0.94030        2.89120
C          6.49530       -1.07370        2.92710
N          4.51240        0.00590        3.91360
H          0.87490        0.43150       -1.12280
H          0.71590        0.84080        0.62630
H          0.67400       -0.89260        0.07840
H          2.98460        0.97560       -0.14740
H          2.54520       -1.41140        1.59380
H          2.58140        0.31730        2.13510
H          4.93980        0.51160        1.26670
H          4.86940       -1.21080        0.73360
H          4.52650       -1.93980        3.10730
H          6.97960       -0.09730        2.70960
H          6.83240       -1.81620        2.17290
H          6.82610       -1.42140        3.92860
H          4.93700        0.94810        3.74910
H          4.80240       -0.33040        4.86060
