11
628	1
F          1.49180       -0.70180        1.65500
C          1.40610       -0.65320        0.27530
F          0.16650       -0.15590       -0.08270
C          2.50180        0.25770       -0.28200
O          3.76440       -0.17600        0.08450
C          4.34590       -1.32040       -0.36090
O          3.79770       -2.02640       -1.19420
H          1.50220       -1.68160       -0.12860
H          2.34970        1.27540        0.13600
H          2.42810        0.32630       -1.38950
H          5.32490       -1.59900        0.01260
