15
677	1
F          2.06770        3.17590       -0.47770
C          1.92570        2.56020       -1.70860
C          2.60420        1.18800       -1.70090
C          4.10840        1.26760       -1.40320
C          4.85070        2.03210       -2.47030
F          4.81170        1.58980       -3.75550
C          5.54850        3.13420       -2.17750
H          2.36100        3.21010       -2.49660
H          0.84330        2.43350       -1.92100
H          2.44510        0.69530       -2.68490
H          2.12110        0.56130       -0.92030
H          4.52040        0.23650       -1.37080
H          4.25820        1.72280       -0.39920
H          5.59860        3.51140       -1.16060
H          6.07550        3.66730       -2.96210
