12
633	1
F          0.39450       -0.24860       -0.24200
C          1.75200       -0.21100       -0.50260
F          2.13410        1.09890       -0.73010
C          2.51780       -0.77790        0.68510
O          3.86770       -0.74910        0.42470
N          4.73020       -1.19390        1.31520
C          5.98870       -1.16570        1.06960
H          1.96210       -0.81500       -1.41080
H          2.19570       -1.82710        0.86350
H          2.29850       -0.17160        1.59120
H          6.69090       -1.53420        1.80920
H          6.35950       -0.77550        0.12610
