16
643	2
C          0.06340       -1.16660        0.99440
C          1.47610       -1.48290        0.50510
C          1.77680       -2.97540        0.67550
O          1.56750       -1.11890       -0.85920
N          2.83960       -0.75020       -1.10620
C          3.65520       -1.55800       -1.82130
O          4.80150       -1.21520       -2.06290
H         -0.04390       -1.43330        2.06770
H         -0.68920       -1.73280        0.40450
H         -0.13950       -0.08040        0.88020
H          2.17330       -0.89030        1.14640
H          1.07430       -3.58500        0.06770
H          1.67950       -3.26800        1.74280
H          2.81440       -3.19760        0.35110
H          3.18020        0.16830       -0.77960
H          3.29370       -2.51520       -2.18370
