15
672	1
O          2.41700        0.56510       -1.37480
C          2.17690        0.05180       -0.09360
C          2.89420        0.90900        0.95810
C          4.42340        0.96720        0.77540
C          5.14610       -0.33740        1.00450
O          6.48760       -0.37820        0.86310
O          4.54020       -1.34630        1.33500
H          1.89990       -0.00470       -2.00150
H          2.51810       -1.00320       -0.03960
H          1.08540        0.08740        0.12070
H          2.65660        0.53190        1.97670
H          2.49640        1.94430        0.87770
H          4.83100        1.69920        1.50520
H          4.65560        1.33810       -0.24580
H          6.98200       -1.19710        1.01050
