18
635	1
C          1.02530       -0.01680       -0.14210
C          2.54950       -0.04950        0.03700
C          2.87260       -0.19230        1.53390
N          3.10970       -1.16500       -0.75260
C          4.57790       -1.14710       -0.81270
C          5.06240       -2.26520       -1.68560
O          5.72940       -2.02840       -2.67950
H          0.58600        0.82820        0.43010
H          0.57070       -0.96680        0.21220
H          0.76590        0.12380       -1.21290
H          2.95390        0.92060       -0.33180
H          2.48520       -1.15710        1.92500
H          2.40570        0.63860        2.10450
H          3.96210       -0.13630        1.72410
H          2.76270       -1.07090       -1.73740
H          5.01410       -1.31140        0.19230
H          4.93640       -0.17180       -1.21310
H          4.81990       -3.29210       -1.43280
