19
659	1
C          0.83870       -0.38750       -0.27290
C          2.35880       -0.29970       -0.37370
C          2.95150        0.44260        0.82970
C          4.48160        0.52870        0.72430
C          5.11590        1.25220        1.88770
C          6.60400        1.41890        1.93070
O          4.43090        1.70350        2.79460
H          0.43770       -0.92870       -1.15560
H          0.39400        0.63020       -0.24760
H          0.54380       -0.93780        0.64590
H          2.62570        0.23520       -1.31130
H          2.77520       -1.32970       -0.41970
H          2.67790       -0.09710        1.76340
H          2.52820        1.47070        0.87010
H          4.75230        1.06470       -0.21120
H          4.90170       -0.49950        0.68000
H          6.94160        1.98860        1.03980
H          7.09130        0.42150        1.93270
H          6.91230        1.96940        2.84520
