17
649	1
C          1.16570       -0.25680       -0.15970
C          2.68960       -0.10810       -0.09490
O          3.24900       -0.28750       -1.37250
C          3.09520        1.25540        0.49690
C          4.61610        1.37950        0.63910
C          4.97230        2.69080        1.19290
C          5.26840        3.76740        1.64780
H          0.90310       -1.25040       -0.58080
H          0.72470        0.53250       -0.80520
H          0.72590       -0.17600        0.85710
H          3.07660       -0.91340        0.56750
H          2.86420        0.40720       -1.96950
H          2.62950        1.37070        1.50130
H          2.71590        2.06870       -0.16150
H          5.10540        1.27260       -0.35200
H          5.00040        0.58740        1.31690
H          5.52610        4.71290        2.04720
