16
622	1
C          0.95010        0.75260        0.46670
C          2.43130        0.41430        0.24410
N          3.06500       -0.00220        1.49740
C          2.60360       -0.67250       -0.82860
O          2.00560       -1.85710       -0.42760
C          1.00510       -2.48830       -1.09630
O          0.54320       -2.02980       -2.13060
H          0.85470        1.57070        1.21160
H          0.39370       -0.13320        0.84060
H          0.48760        1.09110       -0.48490
H          2.94500        1.33160       -0.12040
H          2.57190       -0.83430        1.89620
H          3.00730        0.77710        2.19290
H          3.68750       -0.85950       -0.98530
H          2.18990       -0.29860       -1.79130
H          0.60580       -3.41540       -0.70060
