12
603	1
F          2.00410       -1.29940        0.34170
C          1.77070        0.06470        0.42330
F          0.49000        0.28240        0.90130
C          2.78030        0.71000        1.37950
C          4.23300        0.47580        0.94550
C          4.49880        1.07480       -0.37050
N          4.70260        1.54190       -1.40970
H          1.84990        0.50890       -0.59530
H          2.64120        0.26180        2.38770
H          2.58090        1.80480        1.45430
H          4.44480       -0.61480        0.89940
H          4.91710        0.93090        1.69600
