14
769	2
N          2.47290        0.15240       -1.80290
C          2.39430        0.20410       -0.38580
N          1.77470        1.16970        0.19490
C          3.03300       -0.87600        0.44070
N          4.46570       -0.89380        0.20310
C          5.12130       -1.97510       -0.29510
O          4.52450       -3.00380       -0.57520
H          2.03800        0.88680       -2.38030
H          2.96570       -0.62380       -2.26770
H          1.32690        1.92170       -0.34930
H          2.55300       -1.84380        0.18130
H          2.85510       -0.68990        1.52230
H          5.01140       -0.04740        0.42540
H          6.19450       -1.92620       -0.44890
