17
707	2
C          1.66770        0.00450        3.42870
C          2.98480       -0.01920        2.71290
O          3.79020        0.88000        2.90720
N          3.26670       -1.03010        1.84460
C          4.52010       -1.11320        1.11280
C          5.72240       -1.35230        2.03850
N          5.58230       -2.61610        2.75680
H          1.59400        0.89510        4.08900
H          1.56490       -0.91020        4.04910
H          0.84130        0.03930        2.68830
H          2.55460       -1.75760        1.67770
H          4.66870       -0.18250        0.52330
H          4.46720       -1.96400        0.39840
H          5.85010       -0.51830        2.76080
H          6.63900       -1.39770        1.41120
H          4.77390       -2.55290        3.41700
H          6.44400       -2.76870        3.32930
