15
700	1
C          1.18530       -0.31620       -0.31610
C          2.69440       -0.26580       -0.49890
O          3.23730        0.66850        0.41100
C          4.65260        0.63190        0.37410
C          5.20570       -0.30990        1.40730
O          6.54240       -0.43500        1.54350
O          4.45550       -0.95760        2.12310
H          0.74400       -1.04450       -1.02900
H          0.74520        0.68570       -0.50650
H          0.93800       -0.63100        0.72000
H          2.90510        0.04600       -1.54670
H          3.09270       -1.28920       -0.31070
H          5.02570        1.65350        0.59520
H          5.05460        0.37030       -0.63320
H          6.92470       -1.03330        2.20120
