16
729	1
C          0.07440        0.54000        0.35900
C          1.53290        0.89280        0.42560
C          1.90720        2.13520        0.79220
O          2.43810       -0.07680        0.10620
C          3.81280        0.06930        0.11070
C          4.46300       -1.24220       -0.30380
F          5.83880       -1.10300       -0.30180
H         -0.58120        1.39350        0.63630
H         -0.13130       -0.30060        1.05400
H         -0.17920        0.22400       -0.67430
H          1.16390        2.88670        1.04090
H          2.95080        2.42220        0.85030
H          4.16170        0.33820        1.13190
H          4.11130        0.86350       -0.60830
H          4.12880       -1.52530       -1.32460
H          4.17910       -2.04750        0.40670
