16
735	1
N          2.12750       -1.50940       -0.19810
C          2.20440       -0.18410        0.40990
C          2.78940        0.83110       -0.57120
O          4.10080        0.50470       -0.87400
C          4.60540        0.14390       -2.08920
N          3.76740       -0.19960       -3.18740
N          5.87910        0.08900       -2.24030
H          1.68210       -2.16170        0.48700
H          3.09400       -1.86270       -0.38420
H          2.82570       -0.22330        1.33230
H          1.17960        0.14390        0.68970
H          2.78770        1.83320       -0.09270
H          2.13650        0.90870       -1.46040
H          2.74470       -0.24420       -3.10560
H          4.19160       -0.46700       -4.08780
H          6.51420        0.32230       -1.46280
