18
727	1
C          1.78810       -0.98760       -1.73520
C          3.05810       -1.21640       -0.96640
C          3.64880       -2.42820       -0.99070
O          3.57290       -0.16840       -0.26120
C          4.72910       -0.19470        0.49750
C          4.97480        1.17620        1.12550
N          3.88730        1.53740        2.03070
H          1.45030       -1.89770       -2.27620
H          1.95020       -0.17820       -2.47720
H          0.98580       -0.67820       -1.03340
H          3.21570       -3.24400       -1.56150
H          4.56540       -2.62630       -0.44720
H          5.59550       -0.44650       -0.15260
H          4.63970       -0.95490        1.30470
H          5.07760        1.94540        0.32790
H          5.92510        1.13680        1.70100
H          3.00570        1.66200        1.48220
H          4.11570        2.45820        2.47010
