13
759	1
O          1.23110        1.07240       -0.29470
C          2.16020        0.18360        0.11650
O          2.16650       -0.20270        1.27610
C          3.17940       -0.33910       -0.85770
C          4.62030       -0.02290       -0.42230
C          4.94580        1.44840       -0.36630
O          4.11510        2.29730       -0.65140
H          0.56500        1.41840        0.31600
H          2.99690        0.09100       -1.86670
H          3.05980       -1.44170       -0.92750
H          5.31660       -0.49460       -1.14800
H          4.80880       -0.47020        0.57730
H          5.94350        1.75790       -0.07380
