16
724	1
C          0.86590        1.12710        0.39780
C          1.92530        0.10590        0.78250
O          3.03770        0.25420       -0.06670
N          3.91850       -0.70320        0.28050
C          4.05930       -1.89020       -0.49600
N          5.01550       -2.86590       -0.12000
N          3.32820       -2.08830       -1.53660
H         -0.01750        1.02100        1.06230
H          0.54690        0.96590       -0.65400
H          1.27280        2.15540        0.50100
H          1.47880       -0.90920        0.67420
H          2.21750        0.28940        1.84150
H          4.53480       -0.55300        1.09400
H          5.60740       -2.72180        0.71060
H          5.12620       -3.72790       -0.67390
H          2.62200       -1.40430       -1.84420
