16
699	2
C          1.80710        0.62150       -0.88620
C          3.22600        0.46480       -0.36070
O          3.25740       -0.60160        0.56300
C          4.57090       -0.75930        1.05770
C          4.64790       -1.89150        2.05310
N          3.55680       -2.62530        2.38640
O          5.72480       -2.14960        2.56930
H          1.76600        1.45820       -1.61530
H          1.11260        0.84030       -0.04740
H          1.48330       -0.31300       -1.39190
H          3.51490        1.42260        0.12930
H          3.88970        0.25610       -1.23060
H          4.90120        0.16550        1.58360
H          5.27190       -1.00200        0.22670
H          2.63370       -2.43630        1.97160
H          3.63980       -3.39280        3.06960
