19
866	1
C          0.84350        0.32200        0.06110
C          2.30990       -0.07380        0.29570
C          2.61330       -0.07250        1.79920
C          2.62710       -1.45930       -0.30320
C          2.44420       -1.47680       -1.79410
N          1.60440       -2.28850       -2.33420
N          1.41870       -2.32260       -3.69610
H          0.64450        1.32590        0.49340
H          0.15830       -0.41340        0.53520
H          0.61800        0.37140       -1.02490
H          2.96480        0.68580       -0.18690
H          1.98040       -0.81660        2.32950
H          2.41900        0.93310        2.22970
H          3.68140       -0.32170        1.97580
H          1.98170       -2.23080        0.17360
H          3.68760       -1.71730       -0.09380
H          3.02920       -0.79690       -2.40870
H          0.74000       -2.98200       -4.10120
H          1.94840       -1.69650       -4.32190
