13
854	1
N          1.11400       -0.08850       -0.60790
C          2.48480        0.18070       -0.40470
N          3.08750        1.06800       -1.11920
O          3.15840       -0.53020        0.53040
C          4.51980       -0.44950        0.68700
C          4.93310       -1.36500        1.74540
C          5.27820       -2.11910        2.61800
H          0.60470        0.34930       -1.38770
H          0.64490       -0.79140       -0.01960
H          2.58720        1.60850       -1.83890
H          4.80220        0.58810        0.96330
H          5.01370       -0.74530       -0.26430
H          5.57200       -2.77320        3.39400
