16
871	1
C          3.45480        1.53580        0.24390
C          2.85420        0.17110       -0.09760
F          3.16600       -0.15800       -1.40630
C          3.33700       -0.93550        0.85150
C          4.82120       -1.15090        0.75890
N          5.56360       -0.99700        1.79870
N          6.92400       -1.18780        1.73970
H          3.05300        2.30360       -0.45050
H          4.56060        1.51720        0.14410
H          3.18810        1.82370        1.28300
H          1.74870        0.24710       -0.01050
H          2.83100       -1.88680        0.58170
H          3.04790       -0.67550        1.89410
H          5.25860       -1.43870       -0.19400
H          7.49370       -1.05750        2.58710
H          7.38620       -1.45920        0.85830
