11
791	1
O          0.99880       -0.01640        0.15540
C          2.34760       -0.03540        0.11600
O          2.99090        0.39870        1.06090
C          3.04280       -0.60730       -1.09220
O          4.42310       -0.56690       -0.98170
C          5.15780        0.57660       -0.98020
O          4.62670        1.66870       -1.11990
H          0.52530        0.34090        0.92010
H          2.72320       -0.06440       -2.00820
H          2.73030       -1.66760       -1.19200
H          6.23440        0.51730       -0.86620
