16
870	1
C          0.98180       -0.07130        0.19570
C          2.50140       -0.00870        0.01070
O          2.99990       -1.27410       -0.34770
C          2.89640        1.05830       -1.02630
C          4.38900        1.14770       -1.16510
N          4.99920        2.24710       -0.90500
O          6.30650        2.32810       -1.02760
H          0.72770       -0.82760        0.96830
H          0.48290       -0.35130       -0.75670
H          0.59380        0.91540        0.52750
H          2.94780        0.27250        0.98990
H          2.60330       -1.51710       -1.22530
H          2.49030        2.04440       -0.70820
H          2.46060        0.80610       -2.01700
H          4.95050        0.27540       -1.49070
H          6.76000        3.15850       -0.83020
