17
824	1
C          3.38780       -2.98480       -1.42430
C          4.49860       -2.20820       -0.77670
C          5.71560       -2.77050       -0.63270
O          4.22610       -0.94050       -0.35190
C          5.12080       -0.08410        0.26070
C          4.41780        1.19950        0.59400
C          4.82480        2.37300        0.10070
H          3.70740       -4.00290       -1.73490
H          3.03460       -2.43830       -2.32350
H          2.54520       -3.08460       -0.70880
H          5.90290       -3.78180       -0.98070
H          6.53850       -2.23810       -0.16980
H          5.98550        0.09940       -0.41560
H          5.48830       -0.53560        1.20740
H          3.55600        1.17110        1.25430
H          5.68280        2.43520       -0.56180
H          4.29430        3.28290        0.36170
