13
790	1
O         -0.57250       -0.17440        1.10030
C          0.53330        0.56770        1.33830
O          0.49690        1.42720        2.20390
C          1.80920        0.36200        0.56370
O          1.67190       -0.64410       -0.36870
C          2.68910       -1.00730       -1.18340
C          2.51430       -1.98520       -2.07080
H         -0.59840       -0.86760        0.42690
H          2.62110        0.09900        1.27680
H          2.07110        1.31230        0.04880
H          3.65240       -0.50640       -1.12020
H          1.55890       -2.49520       -2.14650
H          3.32870       -2.27840       -2.72540
