12
793	1
F          3.01550        1.39790       -0.56330
C          2.54820        0.12730       -0.44040
C          1.82160       -0.40390       -1.42870
C          2.85890       -0.65270        0.81090
O          4.22520       -0.76590        0.99410
C          5.05120       -1.46230        0.16990
O          4.61400       -2.07330       -0.79410
H          1.61020        0.17770       -2.32010
H          1.43520       -1.41600       -1.35710
H          2.39840       -1.66590        0.79980
H          2.43330       -0.09760        1.67240
H          6.11510       -1.48450        0.37800
