15
830	1
N          3.21210        0.14930       -4.37990
C          3.50600        0.42830       -3.02120
N          2.56580        0.41570       -2.14060
O          4.78720        0.70790       -2.66340
C          5.17910        0.99180       -1.37030
C          6.65290        1.27560       -1.35590
C          7.50260        0.54450       -0.62800
H          2.24930       -0.06570       -4.67780
H          3.96550        0.16010       -5.08220
H          1.59120        0.20490       -2.40130
H          4.92890        0.13280       -0.70790
H          4.64340        1.89400       -1.00360
H          7.03630        2.09780       -1.95310
H          7.15090       -0.28370       -0.02040
H          8.56270        0.77620       -0.63940
