17
859	1
C          0.92380       -0.01270        0.05910
C          2.46010        0.05730        0.07590
N          2.91250        1.37630       -0.37080
C          3.03460       -0.22900        1.47550
C          2.71540       -1.62730        1.93870
C          2.03380       -1.85370        3.06600
F          1.76840       -3.12800        3.45410
H          0.54590        0.19110       -0.96530
H          0.49090        0.73770        0.75460
H          0.57210       -1.02260        0.35740
H          2.85800       -0.70430       -0.63180
H          2.52430        2.12250        0.25190
H          2.58140        1.55130       -1.34740
H          2.65310        0.53040        2.19440
H          4.14100       -0.13490        1.43480
H          3.05240       -2.47000        1.34180
H          1.68780       -1.02940        3.68200
