18
857	1
C          0.86540       -0.00320        0.13320
C          2.39070       -0.17370        0.05490
C          2.73020       -1.59150       -0.42170
C          3.03010        0.86580       -0.88860
C          2.81750        2.27310       -0.39200
C          2.17630        3.18710       -1.12700
F          2.00410        4.44550       -0.64540
H          0.43140       -0.75660        0.82470
H          0.40460       -0.13130       -0.86990
H          0.60120        1.00280        0.52140
H          2.81600       -0.04410        1.07520
H          2.32370       -1.77290       -1.44010
H          2.30050       -2.34400        0.27360
H          3.83160       -1.73510       -0.44610
H          2.61990        0.73610       -1.91540
H          4.12700        0.69310       -0.93500
H          3.19670        2.54850        0.58790
H          1.78700        2.93820       -2.10950
