12
840	2
N          1.14100        0.28810       -0.81580
C          2.35490        0.21700       -0.22750
O          2.64610        1.00660        0.66010
O          3.23940       -0.73220       -0.62910
N          4.44500       -0.86100       -0.09890
C          5.33320       -1.87190       -0.55540
N          4.99550       -2.68700       -1.49100
H          0.45810        1.00260       -0.52270
H          0.88830       -0.37340       -1.56420
H          4.76090       -0.23070        0.65410
H          6.31690       -1.95880       -0.10610
H          4.07210       -2.64050       -1.94530
