12
811	1
N          1.02150        0.11370        0.05600
C          2.34230       -0.08450       -0.16390
O          2.87140       -1.11460        0.23150
N          3.07890        0.86820       -0.79620
C          4.50540        0.73900       -0.96120
C          5.07840        1.95180       -1.55650
N          5.52780        2.90720       -2.02910
H          0.46030       -0.59860        0.54750
H          0.56770        0.99280       -0.23460
H          2.60310        1.71910       -1.14130
H          4.75770       -0.14430       -1.58350
H          4.97800        0.61480        0.04990
