16
882	1
C          0.66210       -0.69620       -0.09940
C          2.16020       -0.45000        0.07770
C          2.95720       -1.48760       -0.72700
O          2.44870        0.83860       -0.34530
C          3.64140        1.47060       -0.17730
N          4.59720        0.92670        0.48920
O          5.74060        1.55710        0.64910
H          0.39260       -1.71410        0.25520
H          0.37340       -0.59700       -1.16800
H          0.08610        0.04510        0.49450
H          2.39760       -0.55160        1.16040
H          2.72270       -1.40110       -1.80970
H          2.70260       -2.51350       -0.38500
H          4.04860       -1.34800       -0.59110
H          3.77470        2.46040       -0.60430
H          6.45500        1.14240        1.15090
