12
837	2
C          0.65190        0.05510       -0.08190
C          2.09650       -0.32700       -0.13040
O          2.92350        0.47330       -0.54440
O          2.47180       -1.56310        0.28740
N          3.72920       -1.97230        0.27780
C          4.03010       -3.21810        0.70530
O          5.18740       -3.60650        0.70110
H          0.50450        1.09120       -0.45500
H          0.28820       -0.00520        0.96500
H          0.06310       -0.64190       -0.71380
H          4.48560       -1.35170       -0.05230
H          3.24360       -3.88010        1.05460
