15
848	2
C          1.57280        0.68130       -0.51060
C          3.04140        0.39490       -0.38490
N          3.90590        1.09880       -1.02870
N          3.45750       -0.66730        0.46430
C          4.85270       -0.98070        0.70120
C          4.93790       -2.09000        1.65910
C          4.93200       -3.00140        2.44790
H          1.37200        1.54080       -1.18270
H          1.16180        0.91330        0.49520
H          1.06300       -0.21930       -0.91080
H          3.61360        1.86930       -1.64930
H          2.72620       -1.22290        0.93590
H          5.37420       -0.09810        1.13090
H          5.34580       -1.27080       -0.25100
H          4.92860       -3.80140        3.14010
