14
912	1
N          0.98110        0.90400       -1.10560
N          2.34310        0.77180       -0.97200
C          2.98270        1.36470       -0.02570
C          4.46940        1.20340        0.09730
C          5.16320        2.53400       -0.00300
F          5.88990        2.98800        1.05260
C          5.08700        3.27420       -1.11450
H          0.49510        0.41840       -1.87230
H          0.43500        1.48350       -0.44980
H          2.45450        1.98610        0.69370
H          4.85960        0.52630       -0.69430
H          4.69020        0.74780        1.08560
H          4.51720        2.93100       -1.97300
H          5.59830        4.22980       -1.16800
