15
939	1
C          1.20130        2.20710       -1.41910
C          2.35720        1.34600       -1.02320
N          3.38070        1.24020       -1.79590
N          4.45890        0.45330       -1.45460
C          5.58820        0.34280       -2.31760
N          6.68170       -0.47500       -1.93840
N          5.63180        0.97500       -3.43880
H          1.05380        2.99890       -0.65570
H          0.28400        1.58570       -1.48190
H          1.38030        2.68630       -2.40560
H          2.32010        0.81280       -0.07670
H          4.45820       -0.06770       -0.56340
H          6.66360       -0.98780       -1.04520
H          7.50420       -0.56360       -2.55300
H          4.86220        1.58080       -3.75730
