14
905	1
C          1.41820        0.54810        0.95410
C          2.41920        0.23420       -0.11650
O          2.56660        1.00450       -1.05400
C          3.23500       -1.02650       -0.04740
C          4.69780       -0.69990        0.00970
N          5.40770       -1.07860        1.01060
O          6.69120       -0.79470        1.06180
H          0.90600        1.51120        0.74360
H          1.93310        0.62360        1.93460
H          0.65730       -0.25880        1.00130
H          3.03410       -1.64260       -0.94910
H          2.94390       -1.61750        0.84920
H          5.15490       -0.14230       -0.80440
H          7.22010       -1.08270        1.81770
