19
956	1
C          6.18860       -2.31850       -3.17470
C          5.78930       -1.50530       -2.02620
C          5.46150       -0.83410       -1.08010
C          5.06290       -0.01510        0.07290
C          5.61900        1.42010       -0.02070
C          5.09210        2.26010        1.14940
C          7.15630        1.43570       -0.01940
H          7.23770       -2.65430       -3.04320
H          6.10740       -1.71430       -4.10170
H          5.52370       -3.20340       -3.25060
H          5.41430       -0.50740        1.00530
H          3.95250        0.01670        0.09320
H          5.25920        1.88490       -0.96600
H          5.42680        1.83610        2.12080
H          3.98150        2.28550        1.13470
H          5.46100        3.30500        1.06950
H          7.55200        0.98330        0.91540
H          7.52810        2.47980       -0.09600
H          7.55700        0.87050       -0.88690
