14
927	3
C          0.96920        0.03820       -0.09640
C          2.47530        0.07980       -0.19900
N          3.04860       -0.17100       -1.32360
N          3.28490        0.39400        0.93400
C          2.73900        0.68450        2.21530
N          3.52180        0.95980        3.19500
O          3.03020        1.23030        4.38500
H          0.49800       -0.22130       -1.06810
H          0.58800        1.03270        0.21640
H          0.66610       -0.72680        0.64850
H          2.50740       -0.40280       -2.16960
H          4.31030        0.41130        0.81920
H          1.66490        0.67610        2.37540
H          3.62510        1.43680        5.11820
