12
950	1
N          0.64450        0.53550        0.04670
C          1.83130       -0.21630        0.23900
N          2.57470        0.00430        1.26790
O          2.16800       -1.16610       -0.67410
C          3.27500       -1.94520       -0.59670
N          3.50170       -2.81390       -1.51280
O          4.57030       -3.57920       -1.45540
H          0.36470        1.26160        0.72240
H          0.05060        0.35860       -0.77610
H          2.32600        0.72240        1.96400
H          3.97190       -1.84180        0.23260
H          4.73530       -4.23180       -2.14900
