18
974	1
C          0.86820       -0.30500        0.13240
C          2.39300       -0.17010        0.04710
N          2.93890       -1.14420       -0.90380
C          2.76310        1.26070       -0.30200
C          3.49830        1.60610       -1.37550
C          3.83160        3.04410       -1.66110
O          5.22120        3.21470       -1.69860
H          0.59250       -1.33710        0.43630
H          0.40110       -0.08430       -0.85160
H          0.46070        0.40010        0.88830
H          2.82040       -0.38490        1.05090
H          2.47800       -1.03490       -1.83720
H          2.74260       -2.11240       -0.55980
H          2.41130        2.04190        0.36710
H          3.87170        0.85460       -2.06250
H          3.38130        3.74450       -0.92050
H          3.41540        3.31410       -2.65370
H          5.53230        3.21330       -0.75560
