20
972	1
C          1.80700       -0.32550        1.30640
C          2.77110        0.16900        0.23520
C          2.94500       -0.87150       -0.83820
C          4.15560       -1.39420       -1.11370
C          4.41710       -2.44090       -2.18320
C          3.16780       -2.93580       -2.93350
N          5.39890       -1.91030       -3.12920
H          1.67340        0.46370        2.07620
H          2.21150       -1.23760        1.79570
H          0.81650       -0.55800        0.85930
H          3.74100        0.42120        0.71790
H          2.36160        1.09130       -0.22870
H          2.06250       -1.18230       -1.38590
H          5.01480       -1.05300       -0.54230
H          4.86490       -3.31930       -1.66880
H          2.68070       -2.10280       -3.48520
H          2.44300       -3.38100       -2.21890
H          3.45130       -3.72220       -3.66500
H          4.99440       -1.09810       -3.65180
H          5.67020       -2.65230       -3.81540
