18
961	1
C          0.96560        0.11120        0.00470
C          2.42840        0.10230        0.00100
C          3.63400        0.09460       -0.00220
C          5.10330        0.08330       -0.00670
N          5.64450        1.06430        0.95480
C          7.09250        0.86170        1.11920
C          5.38520        2.44800        0.51710
H          0.60160        1.15310       -0.10880
H          0.59560       -0.30750        0.96320
H          0.58990       -0.50550       -0.83750
H          5.47570        0.28060       -1.03670
H          5.41330       -0.94470        0.28220
H          7.29620       -0.16160        1.50190
H          7.49850        1.57560        1.86810
H          7.63180        1.00130        0.15540
H          4.29350        2.63760        0.44470
H          5.85390        2.65350       -0.47120
H          5.78710        3.16760        1.26270
