16
890	2
C          0.74850        0.49460       -0.38160
N          2.18790        0.45840       -0.51760
C          2.91290        1.70340       -0.71820
N          2.83220       -0.76660       -0.45220
C          4.11080       -0.91470       -0.56080
N          4.68380       -2.20870       -0.48150
O          3.91210       -3.28770       -0.28430
H          0.46910        1.11510        0.49600
H          0.34190       -0.52920       -0.23510
H          0.29480        0.92760       -1.29820
H          2.21920        2.57170       -0.74160
H          3.45630        1.67290       -1.68610
H          3.63120        1.86110        0.11380
H          4.76750       -0.06550       -0.71320
H          5.70510       -2.31980       -0.56120
H          3.72570       -3.63700       -1.19320
