14
908	2
N          0.93090        1.80680        0.18310
N          2.27980        1.54110        0.15780
C          2.87620        1.01230        1.16820
C          4.34860        0.73070        1.11370
C          5.06600        1.48020        2.20490
N          6.02680        2.38540        1.90370
O          4.78240        1.26440        3.37430
H          0.47980        2.23020       -0.63970
H          0.36040        1.58900        1.01440
H          2.31950        0.76180        2.06830
H          4.75030        1.01980        0.11750
H          4.51530       -0.35880        1.24890
H          6.28080        2.57880        0.92400
H          6.51650        2.89360        2.65500
