13
1042	1
C          0.99250        0.38050       -0.04410
N          2.41120        0.10810       -0.05160
O          3.14690        0.37020        1.04060
C          3.02790       -0.42280       -1.21710
N          4.29550       -0.65980       -1.22710
C          4.97900       -1.19040       -2.35730
O          4.38390       -1.45160       -3.39260
H          0.68380        0.79470        0.93940
H          0.42820       -0.55800       -0.22890
H          0.74680        1.11990       -0.83550
H          3.11260       -0.46170        1.57940
H          2.41950       -0.62550       -2.09610
H          6.04740       -1.36590       -2.29790
