15
1084	1
C          3.74010        0.96050       -0.90440
O          2.80980        0.34010       -0.09410
C          3.08630       -0.37060        1.03640
C          4.34310       -0.54990        1.50070
C          4.67760       -1.32350        2.73640
N          3.67910       -1.94460        3.53770
N          5.90910       -1.43440        3.09180
H          3.21320        1.45710       -1.74480
H          4.44530        0.21200       -1.32480
H          4.29550        1.73360       -0.33170
H          2.24390       -0.79560        1.56070
H          5.17390       -0.11320        0.95670
H          2.67960       -1.89380        3.30930
H          3.95550       -2.46810        4.38140
H          6.67170       -1.00410        2.54740
