15
1060	1
C          3.56350        1.13310        0.98500
C          2.67130        0.20610        0.20780
O          1.46790        0.22790        0.41470
C          3.20700       -0.73700       -0.80550
C          4.51630       -0.82780       -1.09690
C          5.02030       -1.79610       -2.13060
O          5.69850       -1.10520       -3.14270
H          2.96690        1.75260        1.68830
H          4.10100        1.81060        0.28890
H          4.29880        0.54420        1.57240
H          2.50050       -1.37650       -1.32830
H          5.24210       -0.20080       -0.58960
H          4.20550       -2.41550       -2.57140
H          5.73020       -2.49680       -1.64410
H          5.00310       -0.68810       -3.71590
