14
1023	1
C          0.91370        0.10370        0.25530
C          2.41800        0.12970       -0.03750
O          3.14230       -0.03810        1.14500
C          2.80270       -0.95770       -1.00800
C          3.41330       -0.69960       -2.18130
C          3.77930       -1.76900       -3.07070
N          4.07160       -2.63030       -3.78210
H          0.65910        0.88620        0.98880
H          0.61710       -0.86160        0.70050
H          0.31620        0.26790       -0.65670
H          2.67030        1.12950       -0.44580
H          2.84600       -0.89300        1.56480
H          2.58870       -1.97410       -0.71210
H          3.64810        0.30010       -2.49090
