17
1007	1
C          2.91180       -0.45620       -1.51600
N          3.04050       -0.57240       -0.08650
N          4.25650       -0.33500        0.51220
C          4.39200       -0.37400        1.79230
N          5.66030       -0.12160        2.39320
C          5.78230       -0.12610        3.83240
N          6.78330        0.13320        1.61010
H          1.86770       -0.67890       -1.82240
H          3.59720       -1.17300       -2.01450
H          3.16710        0.57770       -1.83010
H          2.21510       -0.82630        0.47910
H          3.53400       -0.59050        2.42510
H          5.12220        0.65450        4.26680
H          6.82970        0.08630        4.13660
H          5.48940       -1.11950        4.23300
H          6.59550        0.97830        1.02380
H          6.94940       -0.69260        0.99010
