19
993	1
C          2.68120       -1.36870       -0.56820
N          3.56920       -0.27600       -0.26720
N          4.12320        0.45720       -1.29130
C          4.92110        1.43920       -1.05590
C          5.51230        2.22350       -2.19530
C          5.07700        3.68780       -2.09840
C          7.03840        2.10940       -2.16720
H          2.33150       -1.84400        0.37260
H          3.21420       -2.12630       -1.18010
H          1.80200       -0.99190       -1.13180
H          3.78340       -0.05150        0.71750
H          5.17490        1.71020       -0.03320
H          5.14720        1.81200       -3.16320
H          5.42890        4.14250       -1.14690
H          3.96890        3.75970       -2.14080
H          5.49560        4.26870       -2.94790
H          7.44780        2.51770       -1.21770
H          7.48020        2.67160       -3.01750
H          7.34280        1.04460       -2.25920
