16
1074	1
C          3.20950       -1.49300        0.39950
C          3.01320       -0.10010       -0.18720
C          3.13470        0.94460        0.88960
C          4.06800        1.90710        0.83030
C          4.18170        2.93190        1.89250
F          3.33320        2.91400        2.95620
C          5.11600        3.88380        1.81990
H          3.10230       -2.25350       -0.40240
H          2.44840       -1.69390        1.18380
H          4.22410       -1.58330        0.84350
H          2.00070       -0.03150       -0.63880
H          3.76490        0.05800       -0.99150
H          2.44320        0.90660        1.72720
H          4.75600        1.93900       -0.01120
H          5.80810        3.92510        0.98390
H          5.19230        4.63110        2.60320
