16
1008	1
C          1.24900        0.02050        0.51400
N          2.65710       -0.27330        0.44670
N          3.19160       -0.79960       -0.70690
C          4.44600       -1.07330       -0.79980
N          4.97180       -1.61630       -2.00350
C          6.37870       -1.92940       -2.10170
O          4.16110       -1.85210       -3.04740
H          0.99520        0.43610        1.51220
H          0.66460       -0.90900        0.34970
H          0.98450        0.76510       -0.26590
H          3.25510       -0.08580        1.26710
H          5.11020       -0.89040        0.04220
H          6.98050       -1.00830       -1.95040
H          6.61240       -2.34770       -3.10380
H          6.65240       -2.67910       -1.32950
H          4.18490       -1.01880       -3.58480
