16
1010	1
C          2.67630       -0.15680       -0.96160
O          3.76320       -0.46250       -0.18010
N          3.93890        0.13310        0.98130
C          4.97060       -0.13230        1.69980
N          5.16300        0.51230        2.95710
C          6.33620        0.20910        3.74340
N          4.23410        1.43200        3.43710
H          2.70950       -0.76490       -1.88870
H          2.69700        0.92000       -1.23420
H          1.73770       -0.38400       -0.41240
H          5.70530       -0.85210        1.34560
H          7.25080        0.46680        3.16850
H          6.35210       -0.87270        3.99400
H          6.33460        0.79320        4.68860
H          3.30900        0.95270        3.52770
H          4.15580        2.21540        2.74880
