17
1082	1
C          4.73950        1.05980        0.24110
O          3.52400        0.40560        0.20920
C          3.24210       -0.77590        0.82830
C          4.14890       -1.45650        1.56310
C          3.83340       -2.74920        2.23780
C          2.46240       -3.37440        2.13300
C          4.79060       -3.36400        2.95050
H          4.66340        1.99310       -0.35360
H          5.53230        0.42200       -0.20520
H          5.00510        1.32890        1.28570
H          2.23900       -1.16940        0.71280
H          5.15270       -1.05930        1.67660
H          2.22680       -3.58280        1.06830
H          1.70230       -2.68120        2.55040
H          2.39470       -4.33260        2.69190
H          5.78320       -2.93180        3.03890
H          4.59480       -4.30580        3.45420
