18
989	1
C          3.78780       -1.44560        0.58250
O          2.90720       -0.43150        0.26180
C          3.20220        0.89950        0.23630
C          4.42330        1.38910        0.55300
C          4.78920        2.86490        0.52580
C          3.67730        3.81320        0.04190
N          5.24810        3.26220        1.85700
H          3.26050       -2.41920        0.50820
H          4.15560       -1.32370        1.62340
H          4.64040       -1.45400       -0.12950
H          2.40680        1.57340       -0.05490
H          5.21270        0.70560        0.84730
H          5.63930        2.96820       -0.18330
H          2.80070        3.77800        0.72350
H          3.35960        3.54140       -0.98720
H          4.05590        4.85720        0.01480
H          4.45570        3.21050        2.53860
H          5.60240        4.24620        1.83090
