16
1037	1
C          0.99710       -0.19590       -0.10060
N          2.41780        0.11140       -0.10590
C          3.04960        0.67600       -1.28310
C          3.21460       -0.13870        1.05090
N          2.68830       -0.63940        2.11490
C          3.45800       -0.89820        3.27930
N          2.90110       -1.39750        4.32140
H          0.51460        0.05320       -1.06910
H          0.49020        0.38770        0.69700
H          0.84860       -1.28000        0.08950
H          2.32700        0.82310       -2.11330
H          3.85230       -0.00420       -1.63890
H          3.49410        1.66230       -1.03180
H          4.27700        0.09840        1.02670
H          4.52170       -0.67680        3.29920
H          1.89400       -1.61690        4.32970
