11
1034	1
F          1.71440        1.21460        0.14810
C          2.57790        0.16380        0.39300
F          2.10770       -0.57330        1.46320
C          2.65070       -0.71080       -0.81780
N          3.77300       -0.90150       -1.41270
N          3.84440       -1.70350       -2.52450
C          4.96560       -1.89350       -3.11860
H          3.57970        0.57160        0.64780
H          1.74450       -1.18330       -1.18900
H          5.00960       -2.52920       -3.99590
H          5.87450       -1.42400       -2.75240
