19
1003	1
C          3.29410        1.22560       -0.92050
C          3.34010        0.25030        0.24620
N          4.09030       -0.92480       -0.13140
C          4.27260       -1.90240        0.68790
N          5.01730       -3.05330        0.29300
C          5.58290       -3.14000       -1.04320
C          5.19890       -4.13130        1.24620
H          2.71750        2.12910       -0.63030
H          2.80160        0.75120       -1.79600
H          4.32370        1.53220       -1.20310
H          2.30210       -0.03800        0.52280
H          3.82590        0.74400        1.11650
H          3.85620       -1.85420        1.69250
H          6.29260       -2.30110       -1.20500
H          4.77080       -3.08230       -1.79860
H          6.13280       -4.09160       -1.20060
H          5.72930       -3.75020        2.14450
H          5.79370       -4.96700        0.82120
H          4.20860       -4.53090        1.55140
