15
1001	1
C          1.42570       -0.70730       -0.65030
O          2.64350       -0.22630       -0.23580
N          3.10930        0.91030       -0.71070
C          4.24750        1.35950       -0.32150
C          4.77600        2.65380       -0.86460
C          4.99020        3.65620        0.26400
F          5.97820        2.41790       -1.50650
H          1.21790       -1.66830       -0.13660
H          1.43920       -0.87890       -1.74760
H          0.62470        0.01930       -0.39670
H          4.83600        0.80250        0.40380
H          4.05920        3.08510       -1.59760
H          5.72050        3.26020        1.00210
H          4.02860        3.86550        0.77990
H          5.38450        4.60780       -0.15090
