14
1040	1
C          0.80970        0.30310       -0.13170
N          2.20270       -0.00220        0.09910
N          2.99890       -0.41860       -0.96470
C          2.74500        0.12640        1.41170
N          3.98860       -0.13690        1.63230
C          4.59120       -0.02880        2.91720
O          3.94320        0.31840        3.89380
H          0.54860        0.15270       -1.20120
H          0.60720        1.36130        0.13780
H          0.17110       -0.36240        0.48690
H          3.37810       -1.36790       -0.74390
H          3.78950        0.25720       -1.07240
H          2.09730        0.45050        2.22370
H          5.64460       -0.25950        3.03110
