19
1012	1
C          1.93830       -1.13910        0.47210
C          2.42420        0.19470       -0.08240
C          2.85670        0.04380       -1.51020
N          4.07270        0.31820       -1.84760
N          4.55870        0.20760       -3.14030
C          5.94060        0.54980       -3.39500
C          3.72420       -0.24200       -4.24370
H          1.61500       -1.00850        1.52630
H          2.75650       -1.89020        0.44040
H          1.07580       -1.51340       -0.12020
H          3.26880        0.56060        0.54200
H          1.59990        0.93740       -0.03220
H          2.12720       -0.29530       -2.23800
H          6.44420        0.87290       -2.45860
H          5.99290        1.38100       -4.12970
H          6.47860       -0.33350       -3.79940
H          2.86630        0.45050       -4.37570
H          3.35340       -1.26920       -4.04300
H          4.29700       -0.26380       -5.19610
