15
1064	1
N          4.39400       -0.68590        1.33450
C          3.29840       -0.38620        0.47300
N          2.12660       -0.82920        0.76250
C          3.45670        0.42870       -0.76320
C          4.62410        0.95120       -1.18030
C          4.70330        1.76520       -2.44260
O          5.19240        3.04590       -2.15600
H          4.24350       -1.25350        2.18140
H          5.34630       -0.35330        1.14320
H          1.96070       -1.39800        1.60590
H          2.56450        0.60650       -1.35880
H          5.54050        0.80480       -0.62550
H          3.72370        1.84030       -2.96850
H          5.40610        1.26700       -3.14230
H          4.44100        3.55150       -1.74890
