15
1038	1
C          1.13860       -0.19460        0.09710
N          2.57130        0.03880        0.02140
C          3.22200        0.95620        0.93720
C          3.36150       -0.63330       -0.95830
N          2.81620       -1.45660       -1.78970
C          3.55100       -2.15600       -2.78800
O          4.75830       -2.00660       -2.90730
H          0.66340        0.39800        0.90690
H          0.94390       -1.26960        0.29730
H          0.66090        0.09060       -0.86420
H          2.50310        1.41420        1.64870
H          3.71010        1.77280        0.36420
H          3.99280        0.41370        1.52470
H          4.43210       -0.44270       -0.99580
H          3.02930       -2.83370       -3.45460
