15
1054	1
C          1.09210        0.09150       -0.10890
N          2.48660        0.04830       -0.44700
C          2.96440       -1.28690       -0.70400
N          3.29770        0.82410        0.32370
C          4.19700        1.54820       -0.21090
C          5.01300        2.29040        0.67290
C          5.70610        2.92070        1.42010
H          0.48940       -0.40880       -0.88330
H          0.72610        1.12070       -0.00890
H          0.93780       -0.43070        0.85500
H          2.34600       -1.78100       -1.46970
H          2.90160       -1.87740        0.23390
H          4.00520       -1.30290       -1.04930
H          4.32770        1.60340       -1.30780
H          6.30330        3.46580        2.09880
