17
1100	1
C          3.58850       -1.32910       -0.51420
C          2.65800       -0.19630       -0.15040
C          1.34130       -0.31710       -0.38100
C          3.17430        1.06100        0.46310
C          4.47660        1.26260        0.72680
C          4.93270        2.52950        1.33640
C          6.22470        2.73750        1.60150
H          3.04590       -2.19030       -0.96010
H          4.11260       -1.68910        0.39580
H          4.33620       -0.97550       -1.25470
H          0.93230       -1.21900       -0.82640
H          0.65580        0.48600       -0.12660
H          2.46280        1.84720        0.70670
H          5.21200        0.49810        0.49590
H          4.21200        3.30710        1.57490
H          6.97050        1.98090        1.37550
H          6.54190        3.67370        2.04920
