12
1129	1
F          2.91690        0.36860        1.03550
C          2.31450       -0.40060        0.10210
C          1.06290       -0.80600        0.32880
C          3.06940       -0.73170       -1.08020
C          4.32630       -0.31600       -1.29190
C          5.02930       -0.66060       -2.45970
C          5.62430       -0.95230       -3.44830
H          0.55970       -0.51500        1.24440
H          0.51840       -1.42430       -0.37520
H          2.57400       -1.35090       -1.82440
H          4.83580        0.30340       -0.55850
H          6.15810       -1.21270       -4.33260
