14
1085	2
C          1.52010       -0.38420       -0.36830
O          2.86240       -0.55260       -0.11370
C          3.30330       -1.22230        0.97630
C          4.61920       -1.36240        1.18260
C          5.16070       -2.08610        2.35890
N          6.49850       -2.20240        2.52450
O          4.40450       -2.58020        3.18320
H          1.39710        0.19120       -1.30870
H          1.04020        0.17840        0.46130
H          1.02530       -1.37230       -0.48550
H          2.58820       -1.64380        1.67990
H          5.31360       -0.93260        0.46560
H          7.15050       -1.79230        1.83970
H          6.88090       -2.70420        3.33980
