16
1133	1
C          1.08900       -0.03520        0.05100
C          2.61640       -0.00250        0.02630
C          3.13690       -0.53110       -1.30950
C          3.09780        1.33830        0.26210
C          3.49450        2.44350        0.45650
C          3.97580        3.78430        0.69230
F          5.25550        3.87400        0.23850
H          0.71780       -1.05300       -0.11100
H          0.66060        0.60870       -0.72600
H          0.70450        0.31210        1.01660
H          2.98390       -0.66390        0.82050
H          2.79940        0.09090       -2.14680
H          2.78860       -1.55440       -1.48660
H          4.23260       -0.54210       -1.32710
H          3.98050        4.03420        1.75650
H          3.37970        4.53050        0.16020
