15
1154	1
C          0.98940        0.01930       -0.10140
C          2.50650        0.06870       -0.09780
O          2.98540        0.30090       -1.39350
C          2.99270        1.08530        0.82640
C          3.38720        1.94860        1.54710
C          3.86350        2.97480        2.40440
C          4.16690        4.18910        1.94460
H          0.64320       -0.76480       -0.79130
H          0.56730        0.97060       -0.45620
H          0.57890       -0.18930        0.90070
H          2.89860       -0.91030        0.23720
H          2.75050        1.23460       -1.62150
H          3.97080        2.73380        3.45290
H          4.06630        4.44500        0.89860
H          4.52730        4.94790        2.62850
