17
1138	1
C          0.94050       -0.02770       -0.06600
C          2.45890       -0.07000       -0.03870
C          2.94190       -1.21010        0.70530
C          3.33840       -2.15160        1.31600
C          3.81920       -3.29400        2.05950
C          2.67700       -4.04810        2.72330
O          4.50380       -4.18140        1.18360
H          0.59430        0.84290       -0.63290
H          0.52760        0.03960        0.94700
H          0.52770       -0.92680       -0.53730
H          2.83660        0.85730        0.40830
H          2.83680       -0.10330       -1.06690
H          4.53490       -2.97620        2.82590
H          1.96630       -4.42710        1.97880
H          2.12910       -3.41170        3.42650
H          3.05930       -4.92060        3.26520
H          3.91440       -4.33700        0.42440
