15
1151	1
C          0.98910       -0.04010       -0.06980
C          2.51680       -0.07750       -0.06310
C          3.03640       -0.21150        1.36780
C          2.99810       -1.16750       -0.87870
C          3.39490       -2.06600       -1.55100
C          3.86060       -3.15700       -2.37090
O          3.09310       -3.76890       -3.09920
H          0.61600        0.79280        0.53570
H          0.56290       -0.96730        0.33140
H          0.60400        0.08620       -1.08810
H          2.88340        0.87190       -0.47190
H          2.69930       -1.14620        1.83160
H          2.68690        0.61940        1.98980
H          4.13220       -0.20940        1.38930
H          4.93400       -3.38970       -2.29160
