16
1142	1
C          0.94610       -0.04480       -0.06260
C          2.46560        0.00160       -0.08390
C          2.94690        1.24270       -0.64360
C          3.34360        2.26550       -1.10500
C          3.82490        3.50650       -1.66480
C          3.82300        4.62730       -0.64270
F          5.10770        3.31870       -2.08390
H          0.60040       -0.99140        0.36460
H          0.53310        0.04330       -1.07340
H          0.53350        0.77150        0.54040
H          2.84210       -0.84650       -0.66650
H          2.84250       -0.12300        0.93750
H          3.23570        3.79720       -2.53990
H          4.46600        4.38270        0.21010
H          2.81410        4.82690       -0.26620
H          4.21840        5.54600       -1.08830
