12
1116	1
F          3.37600       -0.97100        0.93860
C          2.57790       -0.18350        0.16740
C          1.26920       -0.44380        0.10580
C          3.15660        0.94730       -0.59300
C          4.46780        1.22120       -0.54130
C          5.03370        2.34870       -1.30170
O          6.22940        2.58420       -1.24340
H          0.85350       -1.27480        0.66650
H          0.60600        0.16620       -0.50070
H          2.50230        1.56530       -1.20400
H          5.13220        0.61160        0.06520
H          4.39480        2.97570       -1.91650
