17
1135	1
C          0.88950        0.00500       -0.09270
C          2.42160        0.00770       -0.07920
N          2.93900        1.37210       -0.04990
C          2.91660       -0.71850        1.09220
C          3.31740       -1.30520        2.06200
C          3.80540       -2.02240        3.23700
N          2.96020       -3.18260        3.48060
H          0.51730        0.54300       -0.98910
H          0.48300        0.50370        0.81220
H          0.50360       -1.03460       -0.12680
H          2.79370       -0.50360       -0.99250
H          2.60590        1.85050        0.81820
H          2.55300        1.89860       -0.86510
H          3.78660       -1.34390        4.11510
H          4.85040       -2.34880        3.05950
H          1.98180       -2.85660        3.65510
H          3.28970       -3.64240        4.35800
