11
1160	1
F          0.82880       -0.02570        0.00980
C          2.21050       -0.02540        0.01300
F          2.67100       -1.32780        0.03170
C          2.70110        0.64860       -1.18940
C          3.10520        1.20370       -2.18050
C          3.58670        1.86570       -3.36630
C          4.47840        2.85370       -3.27900
H          2.57780        0.50940        0.91300
H          3.21750        1.55410       -4.33800
H          4.85860        3.17840       -2.31440
H          4.83330        3.34440       -4.17960
