13
1173	1
C          1.00890        0.06420       -0.07360
C          2.50740        0.10700       -0.03880
O          3.15160        0.91890        0.61210
C          3.20030       -0.88230       -0.83480
C          3.79540       -1.68610       -1.48000
C          4.51740       -2.66120       -2.26290
O          4.67770       -3.85900       -1.51690
H          0.60730        0.85760        0.56340
H          0.65450       -0.89960        0.30140
H          0.65500        0.22250       -1.09580
H          5.50950       -2.29640       -2.54580
H          3.97720       -2.90760       -3.18170
H          5.15800       -3.61980       -0.70580
