13
1180	2
N          1.03120       -0.09250        0.02330
C          2.48690       -0.08760        0.04510
C          2.96820       -1.29910        0.66630
C          3.36490       -2.29760        1.17830
C          3.85860       -3.49400        1.81190
N          3.36070       -4.66860        1.34330
O          4.67810       -3.43170        2.71580
H          0.70340        0.78710       -0.37040
H          0.68990       -0.11720        0.98350
H          2.84100        0.79380        0.58980
H          2.85930       -0.00970       -0.98140
H          2.67640       -4.70080        0.60180
H          3.68270       -5.52520        1.76950
