11
1210	1
C          1.06860        0.01620        0.03190
C          2.56620        0.01630        0.10970
O          3.19450        0.01760        1.16010
C          3.27150        0.01470       -1.14950
C          3.85990        0.01330       -2.19560
C          4.61560        0.01160       -3.52760
C          5.21380        0.01030       -4.56760
H          0.65050        0.01750        1.04260
H          0.72290       -0.88030       -0.48980
H          0.72290        0.91130       -0.49210
H          5.75060        0.00910       -5.48750
