13
1250	2
C          0.86910        0.00130       -0.00270
C          2.36410       -0.09170       -0.09860
F          2.93740       -0.11210       -1.33210
C          3.12880       -0.15390        1.00490
N          4.55040       -0.24220        0.90990
C          5.34320       -0.30600        2.01040
O          4.86510       -0.29020        3.13520
H          0.52850        0.93440       -0.49750
H          0.51550        0.01010        1.05070
H          0.41490       -0.86890       -0.52040
H          2.65380       -0.13640        1.98290
H          5.00060       -0.25880       -0.01760
H          6.42010       -0.37240        1.89230
