11
1185	1
O          0.90470       -0.01750        0.04730
C          2.30110       -0.02550        0.01330
C          2.80380        0.62440        1.21350
C          3.20930        1.17180        2.19960
C          3.67400        1.81240        3.38240
O          4.56470        1.18130        4.14730
O          3.27590        2.92430        3.69470
H          0.61760       -0.46650       -0.78830
H          2.67650        0.52120       -0.87380
H          2.67780       -1.06790       -0.00760
H          4.87190        1.63170        4.93620
