12
1256	1
C          0.31310        0.29790       -0.37540
C          1.74380        0.03820       -0.00430
F          2.10350        0.09230        1.30620
C          2.66470       -0.24370       -0.93460
O          3.94920       -0.47320       -0.56390
C          4.94630       -0.76520       -1.43730
O          4.73600       -0.83940       -2.63920
H         -0.33690       -0.44470        0.13210
H          0.14480        0.22520       -1.47140
H          0.02770        1.31680       -0.04070
H          2.37880       -0.28740       -1.98320
H          5.94870       -0.93580       -1.06050
