13
1225	1
O          2.41010        1.33050       -0.08840
C          2.07090       -0.01980        0.06960
C          3.07280       -0.90440       -0.67190
C          4.46850       -0.71330       -0.13110
C          5.17480       -1.71580        0.40790
F          4.66000       -2.97130        0.49680
F          6.42780       -1.47930        0.87620
H          1.72540        1.84610        0.41180
H          1.05980       -0.20070       -0.35870
H          2.07260       -0.29100        1.14950
H          3.06830       -0.64250       -1.75160
H          2.74260       -1.96120       -0.57590
H          4.91680        0.27480       -0.18380
