20
1216	1
C          0.75960       -0.38760        0.11480
C          2.11030        0.26000       -0.06090
C          2.13130        1.58660       -0.78850
C          3.21040       -0.36960        0.42940
C          4.64050        0.11910        0.34850
C          5.49370       -0.89870       -0.41220
N          6.88730       -0.46720       -0.45160
H          0.09560        0.29010        0.69130
H          0.81560       -1.35720        0.65450
H          0.30640       -0.57390       -0.88140
H          1.49640        2.31070       -0.23640
H          1.70390        1.44720       -1.80350
H          3.11800        2.05620       -0.91810
H          3.07180       -1.32280        0.93380
H          5.02900        0.22090        1.38450
H          4.75850        1.09970       -0.13880
H          5.10880       -1.01220       -1.45070
H          5.43650       -1.88580        0.09790
H          6.95580        0.42250       -0.99760
H          7.44330       -1.19210       -0.96020
