16
1231	1
C          1.25660        0.21930        0.40170
O          2.60200       -0.00980        0.04820
C          2.99050        0.90880       -0.95030
C          4.37150        0.53020       -1.42580
C          5.48110        1.30090       -1.38330
C          5.55250        2.70630       -0.84180
F          6.63590        0.77060       -1.86700
H          0.97850       -0.50020        1.19890
H          0.57500        0.03280       -0.45760
H          1.11500        1.23990        0.82200
H          2.92590        1.93810       -0.55620
H          2.32400        0.82970       -1.83910
H          4.47550       -0.46710       -1.84460
H          4.61140        3.12280       -0.44950
H          5.90360        3.38100       -1.64990
H          6.29400        2.73100       -0.01660
