10
1280	1
O          0.95010       -0.04710        0.00900
N          2.26490       -0.04430       -0.03600
C          2.92390        1.00810        0.28840
C          4.39760        0.99600        0.23290
C          5.12140        2.07160        0.56280
F          4.52050        3.22390        0.96410
F          6.47720        2.01720        0.49750
H          0.45970       -0.84290       -0.23650
H          2.39410        1.90440        0.60270
H          4.90810        0.09060       -0.08370
