10
1207	1
F          1.02670        0.02070       -0.08720
C          2.37550       -0.00090       -0.05500
C          2.98990       -0.45680        1.03820
C          3.07850        0.46480       -1.18010
C          3.67360        0.85890       -2.13240
C          4.40340        1.32350       -3.28270
O          5.43090        0.76590       -3.63950
H          2.40780       -0.80550        1.88340
H          4.07130       -0.49400        1.11240
H          3.97790        2.19750       -3.80050
