15
1191	1
C          1.03200        0.07810       -0.02650
C          2.53340        0.06990       -0.04970
C          3.22070       -0.30830       -1.13850
C          3.23640        0.46900        1.10070
C          3.83150        0.80680        2.07450
C          4.53450        1.20590        3.22480
C          3.94550        1.25260        4.42440
H          0.60360       -0.25240       -0.97890
H          0.65810        1.08810        0.17360
H          0.65800       -0.59090        0.75600
H          2.71700       -0.62300       -2.04660
H          4.30700       -0.31320       -1.15230
H          5.58000        1.47980        3.12020
H          2.90200        0.98440        4.55890
H          4.50180        1.56280        5.30280
