16
1259	2
C          0.89480       -0.22210       -0.60000
C          1.85410        0.50700        0.29370
C          1.31240        1.52190        1.26950
N          3.11850        0.24370        0.20120
N          4.08460        0.85600        0.97490
C          5.45870        0.52090        0.82290
N          5.84800       -0.35690       -0.03330
H          0.16770       -0.78970        0.01760
H          1.43050       -0.93490       -1.26320
H          0.34640        0.50730       -1.23220
H          0.20710        1.59590        1.18820
H          1.74200        2.52280        1.05400
H          1.56260        1.22090        2.30850
H          3.83430        1.56660        1.67710
H          6.19730        1.01720        1.44370
H          5.18630       -0.85510       -0.64540
