17
1262	1
C          0.89830       -0.01920       -0.00990
C          2.38470        0.16040        0.06020
C          2.86400        1.54710        0.37390
C          3.19840       -0.92110       -0.14040
C          4.70060       -0.92710       -0.13460
C          5.19600       -1.63920        1.05010
C          5.60640       -2.22160        2.02700
H          0.44000        0.25750        0.96360
H          0.59720       -1.05280       -0.24220
H          0.47760        0.64560       -0.78900
H          2.35920        1.90740        1.29790
H          2.57630        2.22900       -0.45170
H          3.93740        1.63260        0.53920
H          2.74410       -1.87700       -0.33410
H          5.15360        0.07250       -0.17830
H          5.04720       -1.45920       -1.05110
H          5.94820       -2.73380        2.88650
