17
1247	2
C          0.82870        0.03310       -0.40180
C          2.28550        0.37750       -0.21070
C          2.60010        1.83300        0.06150
C          3.21390       -0.61390       -0.29130
N          4.62360       -0.40490       -0.12720
C          5.60550       -1.44360       -0.21060
N          5.31480       -2.67710       -0.44280
H          0.42310        0.60420       -1.26310
H          0.26040        0.30750        0.51150
H          0.66370       -1.04810       -0.59770
H          2.06710        2.15020        0.98230
H          2.22930        2.44590       -0.78660
H          3.66170        2.08860        0.20160
H          2.84790       -1.61050       -0.49150
H          4.98770        0.53380        0.06280
H          6.64870       -1.17880       -0.07100
H          4.36200       -3.02740       -0.58820
