16
1267	1
C          0.71380        0.21300        0.01610
C          2.20690        0.36280        0.02500
C          2.97230       -0.27250        0.92570
C          4.44840       -0.10030        0.90400
C          5.31490       -0.68700        1.75680
C          4.92950       -1.61830        2.87740
F          6.63920       -0.42250        1.59900
H          0.39420       -0.20060       -0.96280
H          0.24610        1.20940        0.15760
H          0.35580       -0.46420        0.82110
H          2.66440        1.00500       -0.72280
H          2.49170       -0.90550        1.65870
H          4.86690        0.55070        0.14030
H          3.84900       -1.81290        2.97950
H          5.28520       -1.18870        3.83680
H          5.43290       -2.59450        2.71940
