10
1186	1
O          1.17400       -0.30740        0.17030
C          2.49440       -0.04980        0.11870
O          3.08500        0.32650        1.11740
C          3.20210       -0.21210       -1.11810
C          3.76320       -0.35850       -2.16990
C          4.45040       -0.53350       -3.44080
F          5.35870        0.49400       -3.59270
H          0.70380       -0.60500       -0.62240
H          3.72620       -0.58690       -4.28020
H          5.03000       -1.47820       -3.38950
