18
1237	1
C          0.98900        1.42850        0.34960
C          2.48370        1.15570        0.28330
O          3.01280        1.75240       -0.83620
N          4.29950        1.65120       -1.10390
C          4.82320        2.20130       -2.14760
C          3.99950        2.99660       -3.13120
C          6.29380        2.04900       -2.39530
H          0.55990        0.94710        1.25360
H          0.48640        1.01620       -0.55110
H          0.80360        2.52240        0.40150
H          2.65620        0.05830        0.23950
H          2.97360        1.56590        1.19300
H          2.92610        3.04790       -2.85600
H          4.07590        2.53080       -4.13590
H          4.39160        4.03360       -3.18520
H          6.77210        1.44300       -1.59600
H          6.77390        3.04970       -2.41780
H          6.45760        1.54410       -3.37020
