13
1243	1
C          0.87340       -0.05160       -0.04600
C          2.37020        0.06740       -0.11690
F          2.93770        1.24660        0.25260
C          3.14070       -0.95460       -0.53810
C          4.64170       -0.84340       -0.62050
C          5.27030       -1.87930        0.20590
N          5.77030       -2.70030        0.85080
H          0.54200        0.13410        0.99690
H          0.50740       -1.05200       -0.36120
H          0.41300        0.71630       -0.70290
H          2.68060       -1.89240       -0.84080
H          5.00990        0.14930       -0.28590
H          4.95580       -0.98890       -1.67440
