14
1284	1
C          0.89150       -0.07840       -0.00590
C          2.35430       -0.08120       -0.00540
C          3.56010       -0.08330       -0.00500
C          5.00470       -0.08030       -0.00560
C          5.74030       -1.18900        0.19550
C          5.14320       -2.55060        0.44230
F          7.09510       -1.08120        0.17590
H          0.52160        0.18680        1.00590
H          0.51960       -1.08620       -0.28320
H          0.52340        0.66670       -0.74090
H          5.51270        0.86340       -0.17670
H          4.03430       -2.55530        0.44320
H          5.49120       -2.92500        1.42730
H          5.49120       -3.24700       -0.34850
