13
1232	1
C          1.27150        0.28760       -0.42870
O          2.67530        0.35950       -0.53230
C          3.22130       -0.93400       -0.39710
C          4.70920       -0.84530       -0.59570
C          5.58800       -1.21670        0.34500
F          5.17220       -1.69990        1.54630
F          6.91980       -1.11040        0.09950
H          0.86150        1.31340       -0.52970
H          0.95700       -0.09120        0.56930
H          0.83500       -0.31980       -1.25260
H          2.83010       -1.61350       -1.18780
H          2.98150       -1.35240        0.60680
H          5.08190       -0.46420       -1.54220
