10
1196	1
C          0.93540        0.07860        0.04760
C          2.43400        0.08160        0.06580
O          3.03450       -0.06240        1.11990
C          3.16800        0.24060       -1.17250
C          3.75610        0.37530       -2.22180
C          4.44910        0.53290       -3.44980
N          5.01980        0.67060       -4.44880
H          0.51430       -0.05590        1.06820
H          0.57090       -0.74890       -0.59680
H          0.57170        1.04290       -0.36040
