17
1228	1
C          0.79170       -0.23090       -0.51080
N          2.22120       -0.15150       -0.20660
C          2.86290        0.91610       -0.97950
C          4.31220        1.02690       -0.56650
C          5.39100        0.88840       -1.36860
C          5.35050        0.58990       -2.84610
F          6.61990        1.02730       -0.80330
H          0.33060       -1.03660        0.09870
H          0.62930       -0.46480       -1.58630
H          0.28690        0.72620       -0.25580
H          2.66220       -1.06730       -0.45920
H          2.38090        1.88930       -0.74180
H          2.70950        0.73290       -2.05710
H          4.49660        1.24050        0.48290
H          4.34780        0.47510       -3.28840
H          5.90440       -0.35390       -3.03270
H          5.86260        1.41170       -3.38880
