21
1286	1
C          0.98070       -0.12000       -0.07720
C          2.50430       -0.13210        0.04980
C          3.16030        0.91340        0.95870
C          4.21890       -0.14610        1.30710
C          3.20980       -1.22620        0.87740
C          2.39040       -1.74230        2.08560
C          3.78630       -2.39700        0.06950
H          0.66200        0.80280       -0.60530
H          0.49000       -0.14070        0.91760
H          0.65080       -1.00290       -0.66330
H          2.99130       -0.06080       -0.95250
H          2.52190        1.08780        1.85380
H          3.49500        1.87300        0.51070
H          4.64390       -0.16490        2.33360
H          5.02540       -0.06840        0.53980
H          1.97240       -0.92390        2.70690
H          3.03810       -2.36260        2.74110
H          1.54730       -2.37260        1.73100
H          4.39440       -2.03000       -0.78460
H          2.96160       -3.02350       -0.33160
H          4.43610       -3.02430        0.71590
