20
1342	1
C          0.84130       -0.00300       -0.32710
C          2.34470       -0.00150       -0.02870
C          2.74590        0.11750        1.44910
C          3.14950       -1.02060       -0.83470
C          3.24860        0.49660       -1.14010
C          4.57090        1.19470       -0.78140
N          4.31460        2.58080       -0.40750
H          0.34930       -0.82180        0.23880
H          0.62570       -0.14970       -1.40750
H          0.40270        0.96560       -0.00970
H          2.21840       -0.66420        2.03470
H          2.44210        1.11290        1.83360
H          3.82880       -0.02030        1.62980
H          2.72620       -1.47890       -1.75320
H          4.11990       -1.36720       -0.42170
H          2.66610        0.86970       -2.01100
H          5.23350        1.16580       -1.67360
H          5.11970        0.69050        0.03880
H          3.89340        3.08380       -1.22190
H          5.22700        3.04010       -0.18620
