15
1340	1
C          1.11990       -0.00660        0.24390
C          2.61250       -0.06240       -0.09370
C          2.90280       -0.15640       -1.59430
O          3.37400        0.96740        0.56100
C          4.10690        0.00410        1.35030
C          3.34060       -1.01120        0.68990
O          3.32050       -2.22920        0.76960
H          0.65710        0.87810       -0.24210
H          0.96660        0.07710        1.34170
H          0.61040       -0.92460       -0.11930
H          2.47480        0.72540       -2.11620
H          2.44930       -1.07910       -2.01520
H          3.99800       -0.17760       -1.78370
H          3.87630        0.06200        2.43560
H          5.18490       -0.04790        1.08640
