18
1350	1
C          0.91100        0.13450       -0.14990
C          2.42560        0.09150        0.04900
O          2.91080        0.29320        1.34830
C          3.31380       -0.72640       -0.89210
C          3.23490        0.80290       -1.02050
C          4.57330        1.46480       -0.66060
N          4.39120        2.90550       -0.53020
H          0.44210       -0.68220        0.43810
H          0.63190        0.00790       -1.21740
H          0.51800        1.10820        0.21040
H          2.85990       -0.59270        1.79170
H          2.64600       -1.34190       -1.53130
H          4.10490       -1.19430       -0.26640
H          2.76010        1.04660       -1.99520
H          5.30720        1.25530       -1.47020
H          4.99550        1.06590        0.28740
H          4.08660        3.29630       -1.45140
H          5.31390        3.33630       -0.29420
