19
1372	1
C          0.90560        0.09180       -0.37140
C          2.40050        0.20600       -0.03330
C          2.76060        0.30320        1.45480
N          3.28150       -0.71610       -0.78280
C          3.27060        0.74400       -1.08170
C          4.62270        1.39570       -0.76360
N          4.44530        2.82830       -0.55730
H          0.47280       -0.79030        0.14520
H          0.72300       -0.01730       -1.46230
H          0.38020        1.00490       -0.02150
H          2.26290       -0.52380        2.00350
H          2.39180        1.26820        1.86050
H          3.84300        0.21380        1.66210
H          2.74350       -1.19480       -1.54200
H          2.80760        0.96810       -2.06960
H          5.30500        1.22370       -1.62480
H          5.12010        0.95730        0.12280
H          4.07530        3.25880       -1.43610
H          5.38040        3.25460       -0.36390
