19
1288	1
C          0.93060       -0.03430        0.18600
C          2.45860        0.02410        0.05640
C          2.88340        0.13580       -1.42870
C          3.16020        1.07660        0.92790
C          4.25200        0.03790        1.21110
C          3.23310       -1.05200        0.84190
O          3.73640       -2.11200        0.07570
H          0.47490        0.87860       -0.25280
H          0.62460       -0.10020        1.25180
H          0.53790       -0.92640       -0.34650
H          2.44520        1.05260       -1.87740
H          2.51140       -0.74400       -1.99550
H          3.98350        0.18690       -1.56240
H          2.58600        1.21420        1.87470
H          3.44850        2.05470        0.48670
H          4.70990        0.01430        2.22260
H          5.02950        0.11030        0.41760
H          2.66440       -1.37300        1.74670
H          4.42000       -2.55450        0.64200
