16
1300	1
C          0.94350        0.04210       -0.08800
C          2.46850        0.09760       -0.08880
F          2.97090        0.24350       -1.37680
C          3.14280        1.10850        0.84050
C          4.24460        0.06730        1.05560
C          3.22070       -1.00650        0.66130
O          3.71010       -2.03470       -0.15390
H          0.53530        0.97540       -0.52930
H          0.55470       -0.06610        0.94680
H          0.60150       -0.82410       -0.69220
H          2.55750        1.18910        1.78750
H          3.41790        2.10820        0.44250
H          4.72980        0.00220        2.05230
H          4.99590        0.17900        0.23750
H          2.64100       -1.35580        1.54870
H          4.39290       -2.50720        0.38850
