16
1339	1
C          1.01890       -0.06570        0.16760
C          2.52310       -0.07240       -0.14810
C          2.82220       -0.12710       -1.64980
N          3.30360        0.99560        0.55080
C          4.05190       -0.05390        1.31330
C          3.26660       -1.04400        0.61380
O          3.25710       -2.26440        0.64220
H          0.54060        0.82340       -0.29450
H          0.84240       -0.03110        1.26450
H          0.53940       -0.98270       -0.23630
H          2.38190        0.75880       -2.15450
H          2.38540       -1.04690       -2.09440
H          3.91800       -0.12800       -1.83690
H          2.69340        1.51210        1.22870
H          3.84810       -0.04780        2.40620
H          5.12500       -0.10610        1.03420
