12
1337	1
C          0.83770       -0.03920        0.12700
C          2.35780        0.03730        0.02710
F          2.86240       -0.02230       -1.25980
C          3.09340        1.07970        0.98330
O          3.65660        0.01980        1.67940
C          3.06830       -0.86930        0.92390
O          3.15840       -2.08520        0.98110
H          0.39040        0.82950       -0.39930
H          0.50530       -0.02460        1.18760
H          0.47730       -0.97450       -0.35060
H          2.41420        1.65850        1.64870
H          3.88260        1.67960        0.47780
