14
1327	1
C          1.05580       -0.04320        0.24660
C          2.55570        0.05950       -0.02250
F          2.88320        0.03530       -1.36730
C          3.32840        1.13770        0.79570
C          4.14790        0.03810        1.54560
C          3.36240       -0.88470        0.73330
O          3.39240       -2.10430        0.68610
H          0.53820        0.82660       -0.20920
H          0.84490       -0.05360        1.33800
H          0.65610       -0.97560       -0.20490
H          2.67680        1.69900        1.50220
H          3.97910        1.76870        0.15070
H          3.89730       -0.09710        2.61940
H          5.22050       -0.03130        1.26480
