14
1409	1
C          0.84430        0.10170        0.06470
C          2.37130        0.05780       -0.02200
C          3.01370        0.03890        1.36650
O          2.78870       -1.03890       -0.77050
C          3.44360       -0.56990       -1.83920
N          3.47560        0.69170       -1.83160
O          2.84960        1.12830       -0.76730
H          0.46350       -0.79250        0.60270
H          0.40430        0.11510       -0.95540
H          0.51540        1.01540        0.60420
H          2.67990       -0.85670        1.93280
H          2.73120        0.95120        1.93390
H          4.12040        0.00750        1.27470
H          3.88910       -1.18230       -2.61110
