20
1443	1
C          0.95540        0.03220       -0.03980
C          2.49080        0.05410        0.02590
C          3.32000       -0.70950       -1.05840
N          2.48570       -1.41730       -2.03700
C          3.28230        0.83420       -1.00620
C          2.55810        1.66200       -2.08660
C          4.61430        1.42800       -0.53050
H          0.58940       -0.83260        0.55110
H          0.53040       -0.06060       -1.05590
H          0.56300        0.96230        0.42060
H          2.95720        0.12780        1.03290
H          4.01400       -1.35050       -0.47310
H          1.96210       -0.81220       -2.70210
H          1.84990       -2.09290       -1.55440
H          1.57690        1.27620       -2.41140
H          3.20900        1.74060       -2.98230
H          2.38070        2.68490       -1.69340
H          5.11020        0.79640        0.23830
H          4.43650        2.43270       -0.09260
H          5.30500        1.53130       -1.39360
