21
1442	1
C          1.06520        0.06220       -0.03640
C          2.59960        0.02780        0.00720
C          3.37750       -0.76850       -1.07030
C          2.60790       -1.50920       -2.17340
C          3.42760        0.76610       -1.05420
C          2.72820        1.58410       -2.15630
C          4.74870        1.35550       -0.54290
H          0.67620       -0.84820        0.46470
H          0.61430        0.10990       -1.04140
H          0.71570        0.94850        0.53210
H          3.08060       -0.04350        1.00700
H          4.26840       -1.27620       -0.64070
H          1.71810       -0.99210       -2.56860
H          2.28000       -2.49270       -1.77790
H          3.29710       -1.68870       -3.02420
H          1.77670        1.17030       -2.52790
H          3.41140        1.67600       -3.02630
H          2.51600        2.60280       -1.76960
H          5.21460        0.73150        0.25010
H          4.56580        2.36770       -0.12530
H          5.46720        1.43990       -1.38510
