9
1441	1
F          0.91760       -0.04630        0.18340
C          2.29970       -0.04600        0.19950
F          2.78880       -0.04480        1.49220
C          2.87080        1.07940       -0.61840
N          3.55490        0.63250       -1.59590
N          3.55510       -0.72740       -1.59470
C          2.87120       -1.17280       -0.61630
H          2.73520        2.13510       -0.42560
H          2.73580       -2.22820       -0.42160
