12
1440	1
C          0.99450        0.02210        0.12290
C          2.52000        0.02250        0.15530
F          2.98990        0.02550        1.45630
C          3.11830        1.14860       -0.64640
N          3.82950        0.69930       -1.60370
N          3.82990       -0.66120       -1.60070
C          3.11880       -1.10670       -0.64160
H          0.60600        0.92570        0.63900
H          0.60640       -0.87930        0.64290
H          0.62170        0.01970       -0.92440
H          2.98140        2.20500       -0.45730
H          2.98240       -2.16230       -0.44790
