19
1444	1
C          1.08390        0.13790       -0.02920
C          2.61970        0.10500       -0.03180
C          3.34430       -0.65460       -1.18420
O          2.42800       -1.15760       -2.11500
C          3.39830        0.87790       -1.07280
C          2.67620        1.69530       -2.15860
C          4.77290        1.40290       -0.64460
H          0.71300       -0.73370        0.54840
H          0.61750        0.09430       -1.03160
H          0.74410        1.06470        0.47760
H          3.13880        0.11290        0.95170
H          3.97040       -1.40470       -0.65550
H          2.90090       -1.12350       -2.98540
H          1.72900        1.24520       -2.51040
H          3.34050        1.79430       -3.04260
H          2.45650        2.71010       -1.76650
H          5.25880        0.74510        0.10840
H          4.66090        2.41660       -0.20620
H          5.43960        1.46670       -1.53010
