14
1483	1
C          0.97450       -0.06690       -0.12700
C          2.50580       -0.15440       -0.07780
C          3.32880       -0.82740       -1.19180
N          2.49880       -1.55790       -2.15670
C          3.18890        0.70440       -1.12340
F          2.46250        1.23530       -2.17680
F          4.40300        1.28320       -0.80190
H          0.54730       -0.89040        0.48040
H          0.54870       -0.12590       -1.14730
H          0.65570        0.89820        0.31840
H          3.00960       -0.01020        0.90260
H          4.11070       -1.41320       -0.66350
H          1.86880       -0.95570       -2.73000
H          1.95150       -2.30130       -1.66710
