16
1416	1
C          0.82040        0.01830       -0.10420
C          2.34860       -0.02910        0.02060
N          2.97470        0.17400       -1.28870
C          2.85090       -1.34600        0.70820
N          3.48380       -0.84160        1.89670
N          3.42910        0.51200        1.98530
C          2.82480        1.01820        0.99310
H          0.46490       -0.79320       -0.77400
H          0.50060        0.99420       -0.52870
H          0.34120       -0.10920        0.89070
H          2.70720       -0.60890       -1.92910
H          4.01730        0.17210       -1.19560
H          3.60100       -1.88770        0.09280
H          2.01910       -2.02750        0.98920
H          3.93900       -1.43010        2.60880
H          2.67910        2.08440        0.88080
