17
1398	1
C          1.22030       -0.18880        0.22870
C          2.71760       -0.08870       -0.08280
C          2.94040        0.10150       -1.58710
O          3.25980        1.02390        0.61090
C          4.40770        0.51770        1.21200
C          4.06720       -0.91020        1.46790
O          3.35840       -1.28510        0.33100
H          0.69590        0.73820       -0.08820
H          1.06570       -0.32460        1.32020
H          0.77110       -1.05550       -0.30190
H          2.44920        1.03470       -1.93680
H          2.52220       -0.75880       -2.15250
H          4.02710        0.17130       -1.80620
H          4.66980        1.04740        2.15200
H          5.24700        0.59540        0.48400
H          3.38990       -0.99930        2.34750
H          4.97940       -1.52300        1.62700
