17
1449	1
C          0.78610        0.07850       -0.05250
C          2.29490       -0.05270        0.18750
C          2.76580       -0.10160        1.64610
C          3.11470       -0.89950       -0.76740
O          2.37480       -1.46050       -1.81720
C          3.15930        0.66060       -0.83480
O          4.34950        1.18590       -0.31360
H          0.26250       -0.79320        0.39290
H          0.53160        0.13140       -1.13270
H          0.41530        1.00520        0.43350
H          2.28540       -0.96090        2.15920
H          2.46960        0.83500        2.16300
H          3.86690       -0.22170        1.73230
H          4.11750       -1.31920       -0.53210
H          2.88430       -1.26310       -2.64500
H          2.79370        1.02980       -1.81820
H          5.06940        0.89120       -0.92910
