20
1452	1
C          1.00500        0.22930       -0.08820
C          2.53790        0.17140       -0.02940
C          3.31930       -0.62330       -1.10090
C          2.56630       -1.34690       -2.22630
C          3.37000        0.91390       -1.08760
C          2.69170        1.75900       -2.17940
N          4.64080        1.45530       -0.59290
H          0.59650       -0.63530        0.47420
H          0.56550        0.20750       -1.09990
H          0.66610        1.16090        0.40990
H          3.01430        0.16880        0.97450
H          4.18650       -1.14940       -0.64670
H          1.70680       -0.80390       -2.65340
H          2.20070       -2.32140       -1.84260
H          3.27840       -1.54390       -3.05400
H          1.72860        1.36630       -2.54630
H          3.37750        1.84310       -3.04770
H          2.50290        2.77730       -1.78080
H          5.09050        0.83810        0.12210
H          4.45300        2.37870       -0.14080
