16
1407	1
C          0.82880        0.03440        0.11500
C          2.35940        0.03640        0.00690
C          3.00150        0.14700        1.39620
C          2.88280       -1.21480       -0.77070
C          3.52700       -0.53560       -1.92310
N          3.41800        0.72280       -1.84880
O          2.76740        1.09850       -0.77830
H          0.48380       -0.84030        0.70710
H          0.37020       -0.01720       -0.89600
H          0.47560        0.96390        0.61070
H          2.71740       -0.72450        2.02420
H          2.66710        1.07750        1.90300
H          4.10890        0.17660        1.30870
H          2.07020       -1.87770       -1.13910
H          3.64650       -1.79580       -0.20980
H          4.03380       -1.03320       -2.73890
