15
1475	1
C          1.06040        0.06440       -0.20230
C          2.58930       -0.02070       -0.10320
C          3.36990       -0.70550       -1.24560
F          2.50600       -1.17740       -2.22070
C          3.41990        0.81410       -1.05460
C          2.82010        1.65640       -2.18570
F          4.64810        1.21710       -0.56050
H          0.62260       -0.79980        0.33860
H          0.66720        0.04320       -1.23700
H          0.71610        0.99760        0.28980
H          3.05980       -0.01530        0.90400
H          4.03810       -1.43120       -0.73600
H          1.89560        1.22960       -2.61970
H          3.56610        1.74610       -3.00250
H          2.59460        2.67190       -1.79980
