13
1403	1
F          0.99110       -0.03360       -0.37650
C          2.36010       -0.03250       -0.14200
F          2.57960       -0.03170        1.22340
C          2.95060       -1.25310       -0.85830
C          3.08540       -0.71860       -2.23780
C          3.08430        0.65310       -2.23830
C          2.94870        1.18850       -0.85930
H          2.27010       -2.12590       -0.76200
H          3.97200       -1.50590       -0.50040
H          3.28370       -1.31490       -3.11840
H          3.28170        1.24900       -3.11940
H          2.26690        2.06040       -0.76360
H          3.96980        1.44310       -0.50160
