16
1539	1
O          1.27770        0.38530       -1.08790
C          1.69740       -0.03170        0.18180
C          3.00570        0.67140        0.56130
C          4.17290        0.41150       -0.42040
O          5.28930        1.18300       -0.05250
C          4.57320       -1.06870       -0.53310
F          4.96900       -1.56640        0.69610
H          0.42300       -0.08700       -1.26420
H          1.83450       -1.13410        0.19830
H          0.92660        0.24240        0.93630
H          3.29980        0.35120        1.58460
H          2.81120        1.76610        0.58880
H          3.85950        0.75280       -1.43070
H          5.56170        0.90870        0.86220
H          5.41550       -1.16990       -1.24990
H          3.73280       -1.68050       -0.91880
