23
1493	1
C          1.88250       -3.48110        2.46950
C          3.25150       -3.19730        1.85740
C          3.60220       -1.70470        1.95770
C          4.95090       -1.34370        1.28710
C          5.15770        0.17890        1.32750
C          6.17570       -2.09150        1.87860
C          6.42270       -1.85080        3.37090
H          1.65260       -4.56400        2.38210
H          1.09410       -2.90700        1.93770
H          1.87520       -3.20160        3.54470
H          3.23670       -3.50520        0.78930
H          4.00230       -3.80890        2.39910
H          3.60840       -1.39390        3.02460
H          2.79840       -1.13070        1.44490
H          4.88570       -1.63020        0.21360
H          5.19910        0.55580        2.37030
H          4.31860        0.69200        0.81060
H          6.09900        0.45360        0.80560
H          7.08540       -1.78370        1.31830
H          6.05830       -3.18300        1.71630
H          6.61380       -0.77870        3.57890
H          7.31860       -2.42440        3.68890
H          5.56200       -2.19890        3.97760
