20
1577	1
C          1.65460       -1.26420        0.27530
C          1.05980        0.14250        0.34510
C          2.02260        1.24900       -0.15250
N          1.34580        2.54850       -0.13750
C          3.32450        1.34020        0.66500
O          3.02880        1.58880        2.02390
C          4.23060        1.67040        2.75550
H          0.89030       -2.00230        0.59800
H          2.52690       -1.36570        0.95230
H          1.96170       -1.50220       -0.76500
H          0.74500        0.35040        1.39070
H          0.15130        0.15440       -0.29580
H          2.30430        1.02430       -1.20570
H          1.00540        2.77150        0.82600
H          0.52080        2.52280       -0.77970
H          3.93570        2.16860        0.23750
H          3.88840        0.38820        0.55050
H          3.97810        1.80700        3.82690
H          4.83150        2.55270        2.44280
H          4.81940        0.72860        2.68260
