18
1537	1
C          0.99260       -0.05130        0.39370
C          2.48480       -0.35340        0.29110
C          3.19640        0.66920       -0.60520
C          4.70920        0.38540       -0.70330
O          4.95640       -0.89690       -1.22580
C          5.43400        1.45060       -1.53680
F          4.96100        1.46630       -2.83760
H          0.50430       -0.80430        1.04760
H          0.52030       -0.09300       -0.61100
H          0.83170        0.95710        0.83120
H          2.61260       -1.37560       -0.12650
H          2.92680       -0.32690        1.31100
H          3.04800        1.68560       -0.17760
H          2.74450        0.64660       -1.62150
H          5.13510        0.42300        0.32330
H          4.53520       -0.94510       -2.12370
H          6.52330        1.23480       -1.55300
H          5.28330        2.45490       -1.08650
