19
1518	1
N          0.86980       -1.98310       -1.66580
C          2.24820       -1.66980       -2.02960
C          3.12430       -1.59340       -0.77090
C          4.59020       -1.18670       -1.05860
N          5.31700       -1.02370        0.20300
C          5.33150       -2.20670       -1.94310
O          6.64330       -1.77590       -2.19290
H          0.30210       -2.04580       -2.54170
H          0.47910       -1.19950       -1.09320
H          2.27670       -0.69660       -2.56860
H          2.61890       -2.46570       -2.70780
H          3.09900       -2.57220       -0.24300
H          2.68300       -0.82560       -0.09780
H          4.58790       -0.20660       -1.58630
H          5.30260       -1.91820        0.74620
H          4.86600       -0.27580        0.77870
H          4.82880       -2.31450       -2.92460
H          5.33600       -3.21540       -1.46870
H          7.19750       -2.07550       -1.42580
