18
1564	1
C          3.30520       -0.02200       -1.70160
N          2.91760       -0.05890       -0.28850
C          3.41210       -1.25900        0.40440
C          4.94960       -1.25890        0.58640
N          5.39600       -0.06300        1.30520
C          5.40520       -2.50790        1.35040
F          5.05120       -3.65430        0.66040
H          2.81760        0.84740       -2.19140
H          2.98480       -0.94720       -2.22840
H          4.39980        0.11770       -1.80800
H          1.87150       -0.08350       -0.25330
H          3.08610       -2.17440       -0.13930
H          2.94340       -1.29140        1.41340
H          5.44810       -1.28500       -0.40560
H          4.91350        0.00450        2.23110
H          5.17330        0.79280        0.74760
H          4.94620       -2.53670        2.36200
H          6.51000       -2.49380        1.46490
