18
1567	1
C          1.35280       -0.88390       -0.11650
N          2.73690       -0.42820       -0.25110
C          3.28870       -0.05080        1.05620
C          4.76130        0.36670        0.92280
O          4.85460        1.48540        0.07740
C          5.35260        0.70650        2.29660
O          6.70310        1.05060        2.15690
H          0.96020       -1.16810       -1.11550
H          0.70980       -0.07690        0.29930
H          1.30100       -1.77860        0.54060
H          2.74150        0.40570       -0.88390
H          3.23100       -0.92390        1.74480
H          2.70020        0.78790        1.49390
H          5.31790       -0.49720        0.48700
H          5.75600        1.46190       -0.33810
H          5.26600       -0.18280        2.96070
H          4.79070        1.56130        2.73690
H          7.02580        1.27460        3.06830
