19
1542	1
C          1.04070       -0.04800       -0.09270
C          2.56660        0.01440       -0.07160
C          3.07070        1.34290        0.51030
F          2.61310        1.48170        1.81140
C          4.60560        1.39660        0.49600
C          5.12680        2.72440        1.05780
N          6.58520        2.75530        1.01480
H          0.71400       -1.01610       -0.52780
H          0.62850        0.77690       -0.71220
H          0.63350        0.03090        0.93750
H          2.93790       -0.09920       -1.11350
H          2.95340       -0.83160        0.53780
H          2.67370        2.18130       -0.10350
H          4.96720        1.28450       -0.55010
H          5.00920        0.55700        1.10370
H          4.78440        2.85580        2.10850
H          4.73100        3.56450        0.44610
H          6.96200        2.01330        1.64870
H          6.90790        3.68040        1.38080
