18
1546	1
N          0.75160       -0.07150       -0.16890
C          2.16280        0.05510        0.17890
C          3.01830        0.15060       -1.08940
C          4.50920        0.30030       -0.74570
F          4.93520       -0.78760       -0.00080
C          5.38060        0.43010       -2.00360
N          5.26940       -0.75120       -2.85520
H          0.19710       -0.12030        0.71610
H          0.60510       -0.97050       -0.68290
H          2.47500       -0.82480        0.78460
H          2.30400        0.97400        0.78940
H          2.68680        1.03130       -1.68280
H          2.86570       -0.76650       -1.69920
H          4.64720        1.21970       -0.13430
H          6.44120        0.56740       -1.69690
H          5.06840        1.32940       -2.57930
H          5.61300       -1.58880       -2.33390
H          5.88870       -0.61880       -3.68600
