20
1565	1
C          0.93710       -0.14430        0.48030
C          2.44470        0.04280        0.31900
C          2.99100       -0.74020       -0.89460
O          2.38190       -0.32110       -2.09140
C          4.52760       -0.67940       -1.01750
N          5.00750        0.68710       -1.26600
C          6.44880        0.69080       -1.51810
H          0.58560        0.42100        1.36910
H          0.69480       -1.21870        0.62460
H          0.39840        0.23460       -0.41400
H          2.94310       -0.32140        1.24370
H          2.65290        1.12800        0.20940
H          2.72990       -1.81060       -0.74110
H          2.55240        0.65150       -2.19350
H          4.82020       -1.33630       -1.86720
H          4.99080       -1.08560       -0.08970
H          4.83480        1.27550       -0.41880
H          6.68520        0.09460       -2.42560
H          7.00400        0.28030       -0.64590
H          6.78910        1.73310       -1.69420
