19
1515	1
N          1.03020        0.55220        0.03550
C          2.45690        0.26430       -0.08270
C          2.89630       -0.79870        0.94670
N          2.15980       -2.05010        0.74500
C          4.41740       -1.04040        0.83710
C          4.96370       -2.00300        1.89950
O          4.45040       -3.29760        1.72580
H          0.77340        1.26120       -0.68890
H          0.84250        0.97360        0.97420
H          3.03160        1.20400        0.07820
H          2.67040       -0.10120       -1.11140
H          2.67990       -0.41250        1.96820
H          2.30220       -2.40120       -0.23020
H          1.13780       -1.89790        0.90490
H          4.93730       -0.06710        0.97670
H          4.67340       -1.42530       -0.17460
H          4.75120       -1.61080        2.92200
H          6.06870       -2.05870        1.80380
H          3.76380       -3.43910        2.42850
