18
1570	1
C          1.02760        0.20960        0.23430
N          2.41320       -0.16340       -0.05250
C          3.28310        1.01910       -0.04910
C          4.73330        0.61540       -0.35460
F          4.80770        0.03600       -1.61090
C          5.69460        1.81130       -0.28360
N          5.33690        2.84530       -1.25080
H          0.39860       -0.70530        0.25630
H          0.63230        0.88980       -0.55210
H          0.95330        0.70290        1.22730
H          2.43610       -0.61060       -0.99850
H          3.25030        1.49650        0.95610
H          2.93220        1.75500       -0.80730
H          5.06100       -0.13540        0.39780
H          6.73050        1.45790       -0.48360
H          5.66980        2.24330        0.74110
H          5.42260        2.46070       -2.21830
H          6.01900        3.63160       -1.16060
