17
1632	1
O          2.03710        1.07370       -0.71920
C          1.90670        0.05360        0.23290
C          2.75210       -1.16680       -0.16500
O          2.29600       -1.70640       -1.38200
C          4.25620       -0.83350       -0.22600
C          5.06520       -2.05990       -0.56100
C          5.99860       -2.53420        0.26980
H          1.46580        1.82060       -0.40210
H          0.84110       -0.26040        0.30200
H          2.24630        0.42220        1.22700
H          2.60700       -1.93850        0.62300
H          2.49040       -1.04800       -2.09920
H          4.57170       -0.41370        0.75520
H          4.44610       -0.06370       -1.00440
H          4.88680       -2.57050       -1.50280
H          6.20330       -2.04810        1.21880
H          6.56490       -3.41920       -0.00140
