13
1646	1
F          1.57510       -1.26520        0.29370
C          1.52650        0.09430        0.04030
C          2.67640        0.81370        0.75590
F          2.54270        0.59700        2.11680
C          4.06860        0.32120        0.31560
C          4.43370        0.62760       -1.11500
O          3.68070        1.24620       -1.85060
H          0.55880        0.49020        0.41420
H          1.55830        0.25870       -1.05500
H          2.59960        1.90780        0.57410
H          4.13800       -0.77530        0.48040
H          4.83160        0.81300        0.95620
H          5.40020        0.30960       -1.49130
