15
1623	1
C          0.94560       -0.21680        0.02030
C          2.42630        0.09460       -0.24730
C          2.71630        0.07360       -1.75770
F          4.06060        0.30260       -1.99320
C          2.85230        1.42870        0.40500
C          2.12940        2.59200       -0.13210
N          1.56300        3.50960       -0.55200
H          0.68430       -1.21510       -0.39150
H          0.28470        0.54190       -0.45090
H          0.74880       -0.23270        1.11350
H          3.02960       -0.71140        0.22600
H          2.12020        0.84690       -2.28750
H          2.45280       -0.91960       -2.17980
H          3.94010        1.58920        0.24830
H          2.67480        1.37870        1.50040
