19
1613	1
C          0.89630       -0.36330       -0.12100
C          2.29500       -0.90590        0.18370
N          2.92810       -0.23110        1.34230
C          2.26440       -0.61630        2.60570
C          4.37200       -0.56730        1.37710
C          5.16350        0.33230        2.33150
F          6.50920        0.02700        2.23970
H          0.50660       -0.85210       -1.03890
H          0.94240        0.73260       -0.29440
H          0.17810       -0.57810        0.69410
H          2.89400       -0.71260       -0.73430
H          2.25290       -2.00800        0.33700
H          1.19730       -0.32240        2.60350
H          2.69750       -0.07380        3.46770
H          2.34180       -1.71130        2.78580
H          4.81760       -0.39900        0.37090
H          4.52590       -1.63800        1.64290
H          4.85610        0.18850        3.38530
H          5.01930        1.39710        2.05160
