21
1602	1
C          1.15130        1.13800       -0.78010
C          2.57540        0.65850       -0.51850
N          3.44850        1.80630       -0.23270
C          4.84830        1.42070        0.04230
C          5.55100        0.87970       -1.21720
C          5.62480        2.62660        0.63050
N          5.64830        3.79090       -0.25600
H          0.49720        0.26860       -1.00240
H          1.13780        1.82890       -1.65000
H          0.75070        1.66700        0.11050
H          2.91130        0.12370       -1.42930
H          2.56990       -0.04780        0.34150
H          3.06570        2.27500        0.62300
H          4.87330        0.62190        0.81860
H          5.51270        1.61410       -2.04760
H          5.08620       -0.06290       -1.56760
H          6.61240        0.64450       -0.98810
H          6.66920        2.32490        0.86390
H          5.15190        2.92770        1.59060
H          6.16560        3.57760       -1.13730
H          4.67500        4.09710       -0.48220
