19
1600	1
C          2.36310        1.10900       -1.84710
O          3.53080        0.51170       -1.33190
C          3.17720       -0.41310       -0.32450
C          4.44210       -1.05930        0.25330
C          5.36080       -0.00860        0.88800
O          4.04970       -1.99710        1.24220
C          4.83900       -3.16390        1.16900
H          2.65910        1.82540       -2.64060
H          1.82780        1.69220       -1.06510
H          1.69710        0.35460       -2.32220
H          2.55010       -1.22850       -0.75370
H          2.62830        0.09090        0.50510
H          4.97840       -1.53380       -0.60570
H          4.84020        0.50780        1.72270
H          5.67250        0.74580        0.13510
H          6.27550       -0.49430        1.28750
H          4.55990       -3.82840        2.01220
H          5.92130       -2.93290        1.28200
H          4.63690       -3.72050        0.22750
