15
1640	1
C          1.40430        0.27410        0.71760
C          2.90000        0.24840        0.41100
C          3.21780       -0.69130       -0.76590
F          2.53450       -0.26210       -1.89190
C          4.71650       -0.72610       -1.09620
C          5.51640       -1.24160        0.02340
N          6.14510       -1.64460        0.90740
H          1.21150        0.95360        1.57440
H          1.04780       -0.74380        0.98370
H          0.83280        0.64300       -0.16030
H          3.43520       -0.09280        1.32340
H          3.23630        1.27980        0.16780
H          2.87630       -1.72150       -0.52070
H          5.07220        0.29240       -1.36060
H          4.87860       -1.39170       -1.97050
