19
1666	1
C          2.05080        0.57330       -1.25770
C          1.66960       -0.76930       -0.63480
C          2.19120       -0.90250        0.80630
C          1.73800       -2.24990        1.39030
O          3.57680       -0.81650        0.79610
C          4.40280       -0.70260        1.87630
C          3.96500       -0.49120        3.12640
H          1.64490        0.63250       -2.28950
H          3.15480        0.68290       -1.30750
H          1.62770        1.40920       -0.66080
H          2.08250       -1.58840       -1.26400
H          0.56020       -0.84940       -0.63520
H          1.75920       -0.06840        1.40260
H          2.14870       -3.08890        0.78860
H          0.62900       -2.31480        1.38630
H          2.08040       -2.37480        2.43660
H          5.47310       -0.77180        1.71130
H          2.91170       -0.39620        3.36030
H          4.68120       -0.40340        3.93690
