19
1604	1
C          1.65750       -0.25140       -1.60190
C          3.01350       -0.19530       -0.90500
N          3.85130        0.84970       -1.51190
C          5.17620        0.97410       -0.86910
C          6.07010       -0.23580       -1.19050
C          5.87620        2.25080       -1.36510
F          5.13790        3.37230       -1.02860
H          1.03210       -1.04570       -1.14270
H          1.79390       -0.48060       -2.68030
H          1.12930        0.72040       -1.50060
H          3.48170       -1.19340       -1.01980
H          2.85670        0.01410        0.17690
H          3.33760        1.75490       -1.39160
H          5.06270        1.05850        0.23570
H          6.18930       -0.34940       -2.28900
H          5.65620       -1.17450       -0.77450
H          7.07380       -0.10090       -0.73450
H          6.00420        2.21940       -2.46870
H          6.87760        2.34590       -0.89290
