18
1704	1
C          1.39100       -0.51480       -0.48350
C          2.86500       -0.55340       -0.06950
N          3.18240        0.42100        1.00320
C          2.51710        0.06570        2.27040
C          4.64130        0.50020        1.23670
C          5.34930        1.07070        0.07920
C          5.92720        1.53310       -0.87310
H          1.24380       -1.16420       -1.37170
H          1.08910        0.52020       -0.74910
H          0.72910       -0.89720        0.31890
H          3.44150       -0.29700       -0.98340
H          3.14610       -1.58760        0.23060
H          1.41550        0.09700        2.16570
H          2.76600        0.81070        3.05650
H          2.82700       -0.94330        2.62190
H          5.06240       -0.50170        1.47520
H          4.85180        1.17230        2.09620
H          6.43080        1.93920       -1.71130
