16
1712	1
C          1.17910       -0.84540        0.30490
C          2.42370       -0.02300       -0.04190
C          2.10870        0.98170       -1.17000
C          3.32360        1.81650       -1.59720
O          4.35240        0.97440       -2.03850
C          2.90730        0.66950        1.16480
N          3.28750        1.21090        2.11430
H          0.82260       -1.39590       -0.59200
H          0.35880       -0.18870        0.66830
H          1.41630       -1.59060        1.09470
H          3.21560       -0.72280       -0.38640
H          1.29750        1.67110       -0.84550
H          1.74710        0.41860       -2.05850
H          3.67620        2.43570       -0.74200
H          3.01270        2.49000       -2.42640
H          5.11340        1.56710       -2.27070
