12
1738	1
F          2.09760        0.44520       -1.31790
C          1.90950       -0.02770       -0.03120
C          2.81410        0.72400        0.94930
C          4.30540        0.58550        0.61220
F          5.04420        1.34870        1.49750
C          4.75620       -0.80960        0.70730
N          5.11040       -1.90850        0.78570
H          2.12040       -1.11750       -0.00640
H          0.84780        0.12830        0.25380
H          2.62770        0.35320        1.98150
H          2.54300        1.80150        0.91580
H          4.49620        0.95910       -0.41620
