18
1743	1
C          1.75510       -1.49880        0.65430
N          3.05730       -0.87920        0.40720
C          3.30280        0.21250        1.35970
C          4.69730        0.84040        1.16110
O          5.71730       -0.09840        1.41090
C          4.82650        1.50690       -0.19610
C          5.78290        1.20190       -1.08250
H          1.59860       -2.32630       -0.06930
H          0.93490       -0.75820        0.52720
H          1.71690       -1.92640        1.67930
H          3.05330       -0.49740       -0.56730
H          3.24870       -0.17990        2.39980
H          2.52550        1.00220        1.24480
H          4.79970        1.64460        1.92070
H          5.57400       -0.87840        0.81420
H          4.10550        2.27610       -0.45800
H          6.53390        0.44730       -0.87740
H          5.81730        1.72080       -2.03500
