17
1721	1
O          0.97970       -0.22330       -0.21250
C          2.37910       -0.23230       -0.25590
C          2.90170       -1.42310        0.55120
C          4.44580       -1.50260        0.52720
O          5.00690       -0.32260        1.04390
C          5.05300       -2.69900        1.24220
C          4.34740       -3.62160        1.91160
H          0.69250        0.55740       -0.75370
H          2.76980        0.71290        0.18260
H          2.71910       -0.33040       -1.31150
H          2.48140       -2.35280        0.10820
H          2.54490       -1.32980        1.60060
H          4.75560       -1.58870       -0.53670
H          4.73920       -0.25920        1.99860
H          6.13300       -2.80840        1.20700
H          3.26810       -3.57810        1.99250
H          4.86490       -4.44420        2.39440
