17
1741	1
C          0.94360       -0.03450        0.10080
N          2.40640        0.02910        0.07680
C          2.92220       -0.51570       -1.18710
C          4.46190       -0.44580       -1.26660
C          5.15010       -1.28710       -0.18280
C          4.89340       -0.92360       -2.59060
N          5.23140       -1.30200       -3.63090
H          0.57180        0.38450        1.05950
H          0.59290       -1.08780        0.02060
H          0.51180        0.56480       -0.72910
H          2.74790       -0.54960        0.87700
H          2.50690        0.08440       -2.02930
H          2.59050       -1.57200       -1.31440
H          4.79190        0.61060       -1.16340
H          4.80360       -2.34260       -0.22360
H          4.94440       -0.87800        0.82720
H          6.25270       -1.26900       -0.32140
