13
1736	1
O          2.91680       -0.01030        1.37850
C          2.39730       -0.03660        0.07790
C          2.98310       -1.22140       -0.70020
C          4.51670       -1.19290       -0.79280
F          4.95080       -2.30920       -1.48410
C          5.00200        0.00750       -1.48660
N          5.38230        0.95580       -2.03010
H          2.52240        0.78830        1.81590
H          2.63910        0.91300       -0.44960
H          1.29220       -0.15860        0.12150
H          2.54810       -1.23100       -1.72410
H          2.68110       -2.16210       -0.19020
H          4.95670       -1.22010        0.22650
