15
1781	1
O          2.12630        0.34290        1.41180
C          1.93850       -0.02980        0.07590
C          2.99170        0.61790       -0.83150
N          4.33670        0.15230       -0.53780
O          4.99570       -0.56500       -1.46290
C          4.97720        0.48770        0.69470
N          6.16300        0.06990        0.96480
H          1.41940       -0.12270        1.92980
H          0.93510        0.31580       -0.25930
H          2.00430       -1.13630       -0.02690
H          2.94820        1.72610       -0.75720
H          2.73510        0.33720       -1.87680
H          5.45280        0.10660       -2.03210
H          4.47020        1.11710        1.41730
H          6.69260       -0.52540        0.31210
