11
1813	1
O          0.84240       -0.31210        0.23410
C          2.24350       -0.07000        0.02790
C          2.83230       -1.26820       -0.71300
C          4.27380       -1.28040       -0.62970
N          5.42290       -1.29010       -0.56330
C          2.43580        1.17570       -0.74320
N          2.60540        2.14930       -1.35190
H          0.72470       -0.62250        1.14900
H          2.70440        0.04640        1.01690
H          2.50280       -1.27530       -1.75960
H          2.43620       -2.19310       -0.27480
