17
1883	1
C          0.98110        0.03090       -0.34910
C          2.46560       -0.06940        0.02340
C          2.75740        0.38610        1.46650
C          2.04360       -0.42150        2.56240
O          2.38110        0.08410        3.82350
C          2.96250       -1.43130       -0.21250
C          3.36630       -2.55060       -0.40180
H          0.61720        1.06430       -0.16850
H          0.36270       -0.67860        0.23910
H          0.83980       -0.20290       -1.42680
H          3.02800        0.60600       -0.65480
H          2.46540        1.45240        1.56710
H          3.85440        0.32260        1.63930
H          2.30210       -1.50290        2.50860
H          0.94340       -0.33470        2.44500
H          3.34650       -0.10960        3.95930
H          3.69010       -3.53700       -0.59760
