19
1881	1
C          0.83860        0.04590        0.00480
C          2.36140        0.06360       -0.09960
C          2.99990       -0.79660        1.00260
C          4.54110       -0.78460        0.94850
C          5.12050       -1.58600        2.11760
C          5.03570       -1.34980       -0.31950
C          5.44720       -1.81110       -1.35490
H          0.40150        0.66370       -0.80770
H          0.51310        0.46200        0.98210
H          0.45720       -0.99280       -0.09430
H          2.71570        1.11340       -0.00740
H          2.64980       -0.32340       -1.10040
H          2.63230       -1.84380        0.91490
H          2.67660       -0.39480        1.98860
H          4.90290        0.26340        1.03150
H          4.77510       -2.64240        2.08200
H          4.79980       -1.13890        3.08280
H          6.23130       -1.57190        2.08330
H          5.80590       -2.21630       -2.26430
