17
1792	1
C          1.02440       -0.24240       -0.00250
C          2.44390        0.05270        0.46730
N          3.36450        0.04240       -0.67530
N          4.67840        0.23950       -0.24510
C          5.09500        1.52230        0.30540
C          5.57120       -0.77750       -0.37630
O          6.73360       -0.64260       -0.02340
H          0.33620       -0.24730        0.86910
H          0.98400       -1.23540       -0.49880
H          0.68800        0.53760       -0.71850
H          2.74740       -0.73140        1.19560
H          2.45040        1.03960        0.97730
H          3.12030        0.78910       -1.36760
H          4.25930        2.25290        0.30570
H          5.91290        1.94990       -0.31280
H          5.45240        1.38940        1.34860
H          5.25290       -1.72600       -0.79860
