17
1805	1
O          1.05660        0.20260       -0.49410
C          2.43610        0.11710       -0.24470
C          2.86820       -1.35300       -0.14470
C          2.19410       -2.03520        1.01680
C          1.40800       -3.10220        0.84460
C          3.16400        0.78380       -1.38370
C          3.96790        1.83430       -1.18930
H          0.59800        0.19570        0.38650
H          2.68690        0.63950        0.71070
H          3.96650       -1.40470        0.01860
H          2.63540       -1.87210       -1.10180
H          2.35250       -1.64940        2.01970
H          1.22930       -3.51230       -0.14470
H          0.93680       -3.57120        1.70220
H          3.03080        0.40010       -2.39150
H          4.12460        2.24470       -0.19650
H          4.47610        2.28980       -2.03290
