18
1804	1
N          1.04900       -0.20880        0.03390
C          2.50000        0.01170        0.07220
C          2.96300        0.88770       -1.11220
C          2.37350        2.27680       -1.07620
C          1.61390        2.73940       -2.07390
C          2.97230        0.59100        1.39570
C          2.15620        0.89840        2.41340
H          0.79280       -0.69340       -0.85690
H          0.53410        0.70100        0.06820
H          2.99690       -0.97770       -0.03240
H          2.69280        0.37130       -2.05980
H          4.07030        0.97920       -1.08870
H          2.57300        2.91700       -0.22180
H          1.39720        2.12510       -2.94260
H          1.20420        3.74260       -2.02310
H          4.03770        0.75900        1.52420
H          1.08410        0.74980        2.35640
H          2.57170        1.30540        3.32940
