14
1876	1
N          1.15570       -0.15650        0.18260
N          2.54290       -0.06500        0.03910
C          3.15050        1.02430       -0.69330
C          3.28730        2.20700        0.16210
C          3.47280        3.19680        0.82570
C          3.37630       -0.89360        0.83090
N          2.86150       -1.80290        1.56950
H          0.68080        0.01140       -0.73190
H          0.83710        0.51410        0.91610
H          2.53140        1.27610       -1.58150
H          4.12760        0.72450       -1.11620
H          3.63390        4.06600        1.40980
H          4.46090       -0.76290        0.82440
H          1.83880       -1.94880        1.59630
