14
1859	2
C          1.70470       -0.66780        0.61130
N          1.57710        0.75000        0.95050
N          0.65570        1.54580        0.27850
C         -0.15970        1.07460       -0.70470
O         -0.94700        1.82850       -1.25450
C          2.37590        1.38270        1.97040
N          3.26730        0.77170        2.67370
H          1.99270       -0.76930       -0.45630
H          0.73430       -1.17930        0.78380
H          2.45500       -1.22570        1.18800
H          0.57880        2.54420        0.53040
H         -0.13170        0.03860       -1.01860
H          2.22320        2.43980        2.16440
H          3.50960       -0.21980        2.59250
