15
1800	1
C          0.91570        0.06510        0.08170
C          2.40430       -0.22480       -0.13600
C          2.99880       -0.89150        1.12620
C          4.48100       -1.10960        1.01180
O          5.23480       -0.16230        0.85410
C          2.56220       -1.06010       -1.38880
O          3.08020       -2.16610       -1.35850
H          0.77670        0.72140        0.96730
H          0.35180       -0.87900        0.24410
H          0.49110        0.58760       -0.80250
H          2.92330        0.74540       -0.29910
H          2.49760       -1.86750        1.30770
H          2.81960       -0.24010        2.00920
H          4.88710       -2.11370        1.07780
H          2.20090       -0.67060       -2.33540
