15
1858	2
C          0.91450       -0.01520        0.01790
N          2.35570        0.12410       -0.03140
N          3.07010        0.13860        1.16040
C          4.25840        0.90590        1.38750
N          4.63760        1.85080        0.59940
C          2.97780        0.12610       -1.32650
N          4.22280       -0.15410       -1.49710
H          0.54760       -0.04110        1.06610
H          0.60870       -0.95680       -0.48580
H          0.43710        0.84640       -0.49530
H          2.65720       -0.31430        1.98960
H          4.80730        0.75320        2.31080
H          4.12570        2.10890       -0.25310
H          2.36030        0.27150       -2.20790
H          4.85670       -0.38050       -0.72060
