13
1828	2
C          0.94190       -0.28560        0.13190
C          2.44960       -0.09670       -0.03730
N          2.75790        0.31130       -1.39960
C          2.98250       -0.58260       -2.39810
O          2.93390       -1.78640       -2.19250
C          2.93930        0.91370        0.91440
N          3.32140        1.70320        1.66980
H          0.57930       -1.06930       -0.56540
H          0.39560        0.65970       -0.07850
H          0.71110       -0.60700        1.17040
H          2.96830       -1.04890        0.20590
H          2.80630        1.31590       -1.62790
H          3.21090       -0.22130       -3.39540
