16
1844	1
C          0.82580        0.40140        0.31710
N          2.26970        0.54950        0.17390
C          3.04820       -0.58010       -0.31630
C          2.96170       -1.73640        0.64430
C          2.46130       -2.91920        0.27550
C          2.89830        1.72620        0.47120
O          2.27130        2.69360        0.87670
H          0.37960        0.14250       -0.66630
H          0.33070        1.32550        0.68190
H          0.59630       -0.40900        1.04030
H          4.12360       -0.31710       -0.42150
H          2.67780       -0.86200       -1.32680
H          3.31560       -1.60250        1.66230
H          2.09910       -3.08320       -0.73480
H          2.41230       -3.73310        0.99150
H          3.97380        1.81800        0.35100
