16
1957	1
C          1.13400        0.02580        0.29830
N          2.55890        0.09970       -0.02520
C          3.11120       -1.23960       -0.25200
C          4.55950       -1.14160       -0.64300
O          5.41110       -1.67940        0.04970
C          4.95550       -0.39270       -1.88890
O          6.34220       -0.44170       -2.09530
H          0.74110        1.05110        0.46320
H          0.96850       -0.56940        1.22330
H          0.56910       -0.42790       -0.54430
H          3.05760        0.54150        0.78290
H          2.56240       -1.74550       -1.07650
H          3.01020       -1.85460        0.67160
H          4.61230        0.66500       -1.83210
H          4.45450       -0.85530       -2.76480
H          6.74370        0.24090       -1.49610
