20
1931	1
C          0.75520        0.35370       -0.26900
C          2.20570        0.29740        0.20360
C          3.14970       -0.09130       -0.94660
C          4.63210       -0.17230       -0.60110
C          5.11090        0.07420        0.63490
C          5.59510       -0.53730       -1.70890
N          5.27390       -1.85490       -2.24700
H          0.09820        0.63760        0.58000
H          0.43330       -0.63860       -0.65100
H          0.64030        1.10970       -1.07490
H          2.28090       -0.45300        1.02060
H          2.48550        1.29930        0.59580
H          3.03470        0.65700       -1.76070
H          2.83260       -1.08280       -1.33630
H          4.46580        0.34300        1.46190
H          6.17560        0.00920        0.83800
H          6.65190       -0.53480       -1.35740
H          5.50710        0.22010       -2.51730
H          5.42780       -2.57410       -1.50300
H          5.93100       -2.06260       -3.03350
