13
1921	1
C          1.22400       -0.49390        0.51830
C          2.57100        0.05720        0.05150
O          2.44540        0.64250       -1.18440
C          2.37670       -0.07130       -2.33010
O          2.49620       -1.28550       -2.31810
C          3.05940        1.07960        0.97020
C          3.46270        1.88420        1.76640
H          0.86440       -1.27180       -0.18560
H          0.46580        0.31670        0.55450
H          1.32720       -0.94470        1.52370
H          3.32970       -0.74960       -0.01050
H          2.25830        0.44010       -3.27370
H          3.81630        2.59190        2.46200
