17
1944	1
C          1.10020        0.61460       -0.48530
C          2.61900        0.58600       -0.31320
C          3.13200       -0.71930        0.24570
O          2.35650       -1.62740        0.51470
C          4.61620       -0.88770        0.46770
C          4.99160       -2.25860        1.03660
O          6.37970       -2.32380        1.20790
H          0.79120        1.59800       -0.89830
H          0.59780        0.46800        0.49470
H          0.77620       -0.18270       -1.18790
H          2.91460        1.40910        0.37220
H          3.09210        0.76140       -1.30310
H          4.96060       -0.10020        1.17240
H          5.13770       -0.74760       -0.50380
H          4.66600       -3.05040        0.32470
H          4.48760       -2.39640        2.01980
H          6.56970       -3.22750        1.57150
