16
1902	1
C          1.54300        0.51390       -0.58170
O          2.89830        0.20600       -0.88450
C          3.19030       -1.17530       -0.62940
C          4.66750       -1.47240       -0.96940
N          5.57860       -0.64590       -0.16580
C          4.97550       -2.89180       -0.74310
C          5.22710       -4.05260       -0.55630
H          1.36390        1.56390       -0.82820
H          1.34870        0.36740        0.48520
H          0.86420       -0.10500       -1.17660
H          2.53390       -1.80120       -1.24690
H          2.98590       -1.39830        0.42600
H          4.84390       -1.21810       -2.02150
H          5.41460       -0.84800        0.81870
H          5.27920        0.32360       -0.29120
H          5.45980       -5.07850       -0.38960
