17
1940	1
N          0.86480        0.23170       -0.05720
C          2.31180        0.05980        0.03030
C          3.02080        1.39030       -0.24680
C          4.53500        1.28020       -0.19100
C          5.26610        1.55080       -1.28590
C          5.23080        0.90640        1.09880
F          4.89230       -0.37450        1.48990
H          0.40830       -0.68500        0.15430
H          0.60600        0.49580       -1.03560
H          2.64180       -0.70390       -0.70930
H          2.55590       -0.29750        1.05120
H          2.69080        2.14800        0.49620
H          2.69940        1.74310       -1.25210
H          4.79040        1.83400       -2.21990
H          6.35000        1.49080       -1.26220
H          4.94310        1.62520        1.89430
H          6.33640        0.94150        0.99310
