16
1971	2
N          0.76250       -0.01070        0.05010
N          2.15360        0.02690        0.05670
C          2.87870        0.59950        1.14690
N          2.26450        1.07730        2.17420
C          4.38780        0.62370        1.11000
C          4.95200        2.04800        1.12860
O          4.63320        2.70280        2.32850
H          0.45000       -0.48230       -0.82930
H          0.41290        0.97430        0.02220
H          2.67330       -0.37820       -0.73730
H          1.23820        1.07480        2.25380
H          4.74520        0.12990        0.18090
H          4.78680        0.05140        1.97510
H          4.58820        2.61960        0.24250
H          6.05850        2.00170        1.04590
H          3.86840        3.30590        2.13950
