14
1904	1
C          1.20850        0.17930        0.24310
O          2.61240        0.31440        0.15430
C          3.04460       -0.01070       -1.15310
C          4.57620        0.09640       -1.22390
F          5.14520       -0.93050       -0.49650
C          5.06510        0.00050       -2.60950
C          5.46260       -0.08570       -3.74660
H          0.89420        0.42130        1.28170
H          0.88800       -0.86530        0.04240
H          0.67840        0.88780       -0.43090
H          2.59410        0.69390       -1.88770
H          2.76070       -1.05550       -1.41470
H          4.91340        1.06290       -0.79030
H          5.82490       -0.18210       -4.73820
