13
1912	1
O          0.97630       -0.04350       -0.22400
C          2.38000       -0.05460       -0.19020
C          2.88250       -1.44500        0.22170
C          2.51020       -1.81530        1.62700
O          2.18740       -0.96980        2.44830
C          2.87880        0.27020       -1.53370
C          3.28450        0.54400       -2.63650
H          0.66340        0.02920        0.71450
H          2.75370        0.72650        0.51030
H          3.98800       -1.52080        0.13360
H          2.43500       -2.19950       -0.45870
H          2.57010       -2.85290        1.92120
H          3.62720        0.76150       -3.61470
