16
1974	2
N          2.12900       -0.00970        1.47920
C          1.97850       -0.15680        0.03550
C          3.09540        0.56130       -0.73660
C          4.46930       -0.02370       -0.47090
N          5.12400       -0.59820       -1.41930
N          5.05860        0.08130        0.81920
O          6.27590       -0.43060        1.05340
H          1.34990       -0.52560        1.94850
H          2.03640        1.00160        1.73000
H          0.99790        0.27070       -0.27140
H          1.98340       -1.23660       -0.23070
H          3.10020        1.64530       -0.49300
H          2.85120        0.46370       -1.81690
H          4.73730       -0.68710       -2.37050
H          4.57830        0.59480        1.57100
H          6.10460       -1.33220        1.42850
