17
2021	2
C          1.52290       -0.24680        0.23480
N          2.86580       -0.74930        0.51180
N          3.35780       -1.37900       -0.62850
C          4.56400       -0.94050       -1.25040
N          5.20790        0.08190       -0.80400
C          5.09590       -1.68380       -2.44390
N          5.36350       -3.07320       -2.08870
H          1.11780        0.24020        1.14650
H          0.84340       -1.07830       -0.05520
H          1.55890        0.50740       -0.57980
H          2.81390       -1.46370        1.27410
H          2.85970       -2.19660       -1.01540
H          4.88170        0.62210        0.01000
H          6.03090       -1.20820       -2.81760
H          4.33760       -1.64960       -3.25480
H          6.11470       -3.10280       -1.36100
H          5.71970       -3.57080       -2.93620
