19
2012	2
C          2.89160       -1.13450        1.78540
C          3.88470       -0.47530        0.83240
N          4.64440       -1.47110        0.09860
C          5.64600       -1.12320       -0.86420
N          5.91250        0.10690       -1.14460
C          6.39990       -2.21320       -1.58090
C          7.21320       -3.06230       -0.60740
H          2.32470       -0.35290        2.33390
H          3.43050       -1.76860        2.52120
H          2.17460       -1.76350        1.21610
H          4.57880        0.15840        1.42580
H          3.32060        0.16330        0.11860
H          4.45580       -2.47070        0.26990
H          5.43220        0.89850       -0.69600
H          7.09990       -1.76800       -2.32220
H          5.67820       -2.85720       -2.12710
H          7.95060       -2.42840       -0.07000
H          7.76210       -3.84680       -1.16980
H          6.55420       -3.56100        0.13350
