17
2004	1
C          0.94090        0.81450       -0.04290
C          2.36860        0.29910       -0.19980
C          2.78730       -0.55010        1.00960
C          4.19240       -1.08360        0.90290
O          4.88370       -0.83090       -0.07610
O          4.68080       -1.85040        1.91130
C          5.95230       -2.38480        1.90860
H          0.66550        1.42370       -0.92950
H          0.85710        1.44940        0.86480
H          0.23030       -0.03550        0.03920
H          3.05380        1.16910       -0.30070
H          2.42770       -0.31430       -1.12550
H          2.09430       -1.41360        1.10760
H          2.71920        0.06750        1.93120
H          6.10400       -2.96710        2.84050
H          6.70970       -1.57280        1.86760
H          6.08120       -3.06360        1.03840
