16
2009	1
C          0.86430       -0.06410       -0.04670
N          2.31770       -0.00810       -0.20490
C          2.88470       -1.36040       -0.28550
C          4.36850       -1.32160       -0.53040
O          4.95270       -0.25040       -0.63490
O          5.04810       -2.49180       -0.64060
C          6.40540       -2.55980       -0.87540
H          0.46020        0.96890        0.00390
H          0.58840       -0.59870        0.88890
H          0.39900       -0.57240       -0.91870
H          2.71790        0.48090        0.63050
H          2.41730       -1.91560       -1.12810
H          2.69370       -1.91230        0.66190
H          6.71330       -3.62440       -0.92390
H          6.96280       -2.06370       -0.05210
H          6.65190       -2.07270       -1.84330
