17
2064	1
C          2.77430        1.80550       -0.85920
C          2.30350        1.46200        0.55350
O          2.95490        2.22500        1.50690
C          4.27570        2.11810        1.81130
O          4.96940        1.25780        1.28410
C          4.86610        3.06520        2.82310
C          6.35530        2.83000        3.07690
H          2.20270        1.20390       -1.59690
H          3.85300        1.58240       -0.98800
H          2.60040        2.88310       -1.06420
H          2.44800        0.37950        0.76280
H          1.21700        1.68310        0.61490
H          4.31700        2.94780        3.78160
H          4.72570        4.10520        2.45870
H          6.52320        1.80340        3.46690
H          6.72400        3.55940        3.82870
H          6.93310        2.96610        2.13780
