15
1985	2
N          0.97730        0.01280       -0.14210
C          2.38440       -0.12780        0.21820
C          3.26340        0.68290       -0.74340
C          4.73690        0.59430       -0.42130
O          5.12670       -0.07660        0.52490
N          5.63280        1.26400       -1.18760
O          6.94600        1.19440       -0.92150
H          0.40430       -0.53150        0.54260
H          0.82180       -0.40550       -1.08830
H          2.67240       -1.20250        0.18260
H          2.53000        0.24820        1.25480
H          2.95560        1.75010       -0.69830
H          3.10750        0.31090       -1.77920
H          5.30870        1.82730       -1.98840
H          7.13680        1.99240       -0.36460
