14
2007	1
C          1.69840       -0.97900       -0.39160
O          2.99180       -0.55140       -0.17620
C          3.30490        0.50790        0.61330
O          2.42370        1.14210        1.18040
C          4.75330        0.88860        0.77920
C          4.96130        2.09720        1.69330
F          6.31170        2.37840        1.79120
H          1.71380       -1.85650       -1.07000
H          1.10120       -0.17110       -0.86620
H          1.22850       -1.27900        0.56960
H          5.17470        1.11960       -0.22250
H          5.30050        0.01970        1.20320
H          4.56580        1.88270        2.70920
H          4.43970        2.98630        1.27880
