15
2147	2
N          1.27490       -0.48150       -0.94560
C          2.30650       -0.17260        0.04020
C          2.81300        1.24430       -0.16740
N          1.96800        2.21530       -0.15100
N          4.19050        1.54240       -0.43570
N          5.22680        0.64220       -0.27830
C          5.32520       -0.13490        0.74370
H          0.91670       -1.44700       -0.76330
H          1.70050       -0.47300       -1.90140
H          3.10350       -0.93430       -0.05340
H          1.86870       -0.24790        1.05910
H          0.96400        2.05480        0.02070
H          4.41700        2.47680       -0.80720
H          6.15880       -0.82460        0.81550
H          4.60650       -0.08890        1.55650
