13
2169	1
O          2.76590       -0.51340        0.35020
N          3.79400       -1.37400        0.40300
C          4.74620       -1.27580        1.36810
O          5.66960       -2.07870        1.37760
N          4.67810       -0.29660        2.31640
C          5.66390       -0.17130        3.34020
C          5.57550        0.79570        4.25750
H          2.02500       -0.97060        0.82490
H          3.86230       -2.11730       -0.30910
H          3.89560        0.37510        2.29910
H          6.50130       -0.86230        3.38730
H          4.75300        1.50410        4.24180
H          6.33180        0.88040        5.03110
