15
2086	1
C          1.11510       -0.32280       -0.22590
C          2.62580       -0.14980       -0.06690
C          3.01170        0.61180        1.17830
O          2.15150        1.02500        1.94540
C          4.47330        0.85690        1.46190
C          4.69520        1.61380        2.74060
O          5.26310        2.69420        2.72810
H          0.90170       -0.88870       -1.15720
H          0.61780        0.66850       -0.29150
H          0.69840       -0.88740        0.63540
H          3.01650        0.39350       -0.95380
H          3.09670       -1.15560       -0.03100
H          4.90920        1.42430        0.61090
H          4.99460       -0.12040        1.53910
H          4.35320        1.19760        3.68300
