15
2163	1
C          1.69770       -0.95650        1.50450
N          2.36410       -0.58620        0.27470
C          3.32370        0.37930        0.24300
O          3.64230        0.95910        1.27420
N          3.92640        0.69730       -0.93680
C          4.93670        1.70090       -1.02230
C          5.51090        1.99220       -2.19250
H          0.95580       -1.75870        1.30540
H          1.16640       -0.07780        1.92840
H          2.43970       -1.33290        2.24050
H          2.09920       -1.07150       -0.59610
H          3.64450        0.19780       -1.79490
H          5.25270        2.24240       -0.13470
H          5.22020        1.47160       -3.09970
H          6.27830        2.75770       -2.24470
