15
2124	3
C          2.08080       -0.14790        1.22390
C          2.21610       -0.04230       -0.29610
C          3.18270        1.05940       -0.70140
N          2.73140        2.10560       -1.30130
N          4.58900        0.97290       -0.44650
C          5.19750       -0.13880        0.04200
O          6.40480       -0.14190        0.22330
H          1.35290       -0.94810        1.47460
H          1.70490        0.81250        1.63710
H          3.04220       -0.38850        1.71770
H          1.19940        0.17470       -0.69070
H          2.53730       -1.00920       -0.73730
H          1.72970        2.22330       -1.51360
H          5.17520        1.79120       -0.67540
H          4.63730       -1.03810        0.26400
