11
2171	2
O          2.57410        0.48920       -1.33610
N          2.17800        0.14430       -0.10130
C          3.07870       -0.06450        0.89520
O          2.67280       -0.37360        2.00820
N          4.41880        0.06800        0.66110
C          5.34730       -0.13320        1.63360
O          6.53460       -0.00390        1.38040
H          2.60960       -0.36370       -1.84080
H          1.16950        0.04470        0.09170
H          4.74710        0.32910       -0.28120
H          5.05190       -0.40950        2.64190
