13
2165	2
C          0.90070       -0.04840       -0.25630
N          2.31800        0.02830        0.02500
C          3.17120       -0.97690       -0.31560
O          2.74150       -1.97960       -0.87450
N          4.50110       -0.86120       -0.03280
C          5.39900       -1.83110       -0.35040
O          6.57990       -1.68270       -0.07820
H          0.39410        0.87280        0.10180
H          0.45660       -0.92390        0.26370
H          0.73510       -0.14280       -1.35070
H          2.68320        0.87060        0.49520
H          4.84130       -0.00820        0.43830
H          5.08460       -2.74470       -0.84700
