16
2097	2
N          0.44570       -1.52610        0.83650
N          1.76250       -1.33170        0.42970
C          2.75400       -0.83250        1.32830
N          2.46580       -0.56230        2.55460
C          4.15860       -0.61510        0.83890
C          4.76940       -1.92230        0.41250
C          5.20460       -2.12170       -0.83530
H         -0.09700       -1.90070        0.02510
H          0.04060       -0.59510        1.08890
H          2.03430       -1.56160       -0.53920
H          1.52110       -0.69860        2.94040
H          4.78740       -0.19110        1.65160
H          4.13340        0.11880        0.00350
H          4.86340       -2.72280        1.14120
H          5.12730       -1.34190       -1.58670
H          5.64540       -3.07530       -1.10840
