13
2159	2
N          1.08020       -0.22330        0.46480
N          2.45920       -0.07330        0.35440
C          3.19600       -0.69310       -0.70050
N          2.59350       -1.38620       -1.60730
N          4.61470       -0.53210       -0.74430
C          5.38010       -1.07980       -1.72310
O          6.58970       -0.91610       -1.71620
H          0.75490        0.32490        1.29320
H          0.88030       -1.23190        0.65480
H          2.96280        0.50630        1.04320
H          1.57280       -1.52000       -1.61240
H          5.07310        0.02010       -0.00350
H          4.93240       -1.66580       -2.52020
