17
2114	2
C          2.68730        1.39890       -0.98050
C          2.32160        0.10240       -0.25590
C          2.86540       -1.11860       -0.97970
C          2.00500       -1.97560       -1.55450
N          4.27130       -1.38750       -1.06300
C          5.25360       -0.63790       -0.35130
N          6.50040       -0.92590       -0.46420
H          2.25980        2.26290       -0.42940
H          2.26250        1.39040       -2.00700
H          3.78230        1.54480       -1.05630
H          1.21050        0.06840       -0.20910
H          2.68970        0.11410        0.79150
H          0.93290       -1.80820       -1.51260
H          2.36690       -2.85660       -2.07550
H          4.58820       -2.19100       -1.62810
H          4.96750        0.17230        0.30730
H          6.81980       -1.69360       -1.07310
