12
2092	1
F          2.01840       -0.71940       -1.02720
C          1.68090       -0.14940        0.18640
C          2.70750       -0.50930        1.21900
O          2.37230       -1.13480        2.21410
C          4.14600       -0.11120        1.03510
C          4.59080        0.77520        2.15930
O          4.99370        1.90490        1.93230
H          0.67690       -0.51660        0.48870
H          1.63710        0.95420        0.07480
H          4.27300        0.42130        0.06670
H          4.77930       -1.02310        1.01670
H          4.55940        0.41220        3.18180
