17
2094	2
C          0.61140       -0.40900        0.52690
N          2.04000       -0.20170        0.61150
C          2.96400       -1.25990        0.88590
N          2.56600       -2.47290        1.06660
C          4.43470       -0.95550        0.95730
C          4.70940        0.01040        2.07710
C          5.26240        1.20610        1.85250
H          0.10350        0.55370        0.30600
H          0.22580       -0.79700        1.49330
H          0.37860       -1.12520       -0.28920
H          2.40560        0.75150        0.46630
H          1.57450       -2.74520        1.02750
H          4.76010       -0.54590       -0.02380
H          5.01370       -1.88460        1.15060
H          4.45210       -0.27300        3.09370
H          5.53100        1.51890        0.84810
H          5.44840        1.88070        2.68180
