14
2179	2
C          1.38770        0.44010        0.52560
O          2.68070       -0.03580        0.43230
C          3.06350       -1.34280        0.55260
C          2.16960       -2.32490        0.78330
N          4.44580       -1.68000        0.43130
C          5.39150       -0.73580        0.19940
O          6.56510       -1.05740        0.10090
H          1.39680        1.54030        0.38490
H          0.96650        0.21730        1.52920
H          0.75300       -0.01070       -0.26700
H          1.10940       -2.12280        0.88350
H          2.49830       -3.35560        0.87500
H          4.73800       -2.66630        0.52170
H          5.12120        0.31090        0.09870
