14
2191	1
N          2.48300       -1.12630        0.40610
C          1.83430        0.04660       -0.17120
C          2.37260        1.31470        0.46640
C          1.53700        2.11320        1.14290
O          3.68580        1.68380        0.38880
C          4.69120        1.10080       -0.32040
O          4.49160        0.16140       -1.07320
H          2.10480       -1.98080       -0.06310
H          2.24080       -1.18520        1.42220
H          0.73420       -0.04590       -0.02340
H          2.00950        0.07920       -1.26730
H          0.48280        1.87210        1.24200
H          1.90710        3.02250        1.60670
H          5.69480        1.50150       -0.23240
