13
2229	1
C          1.51000        0.84570       -0.09170
O          2.82310        0.43630       -0.04210
C          3.20260       -0.82310        0.28990
O          2.36670       -1.67850        0.55630
C          4.66950       -1.14300        0.30500
C          4.96630       -2.54500        0.62780
C          5.21930       -3.69760        0.87420
H          1.47640        1.90360       -0.42410
H          1.04930        0.76760        0.91580
H          0.94620        0.22320       -0.81870
H          5.16550       -0.48950        1.05100
H          5.08220       -0.92560       -0.70120
H          5.45460       -4.70660        1.08910
