15
2222	2
C          1.00040        0.29570        0.25710
N          2.38930        0.09160       -0.08550
C          3.08450        0.91320       -1.02810
N          2.45330        1.67070       -1.85910
C          4.58440        0.91620       -1.02790
C          5.04410        1.38900        0.28320
C          5.41530        1.78900        1.35850
H          0.69420       -0.44010        1.03050
H          0.34570        0.17190       -0.62850
H          0.87810        1.31550        0.68300
H          2.92130       -0.62140        0.43700
H          1.42690        1.70880       -1.90680
H          4.98100        1.59880       -1.80990
H          4.96830       -0.10860       -1.21590
H          5.74370        2.13550        2.30300
