14
2207	1
C          1.17070        0.40210       -1.79540
N          2.37380        0.12160       -1.04290
C          2.97700        1.07690       -0.15780
N          2.46550        2.24710        0.00950
O          4.10590        0.76390        0.52480
N          4.68930       -0.41200        0.40750
C          5.75690       -0.67540        1.06740
H          0.89430       -0.48220       -2.40800
H          1.34010        1.26250       -2.47680
H          0.33210        0.62580       -1.10270
H          2.80680       -0.80650       -1.15530
H          1.61130        2.55780       -0.47280
H          6.22930       -1.64600        0.96390
H          6.19420        0.06550        1.73070
