19
2230	1
C          0.75580        0.32170        0.06930
C          2.24810        0.08650        0.28550
C          3.07200        0.66010       -0.87860
C          4.56090        0.42670       -0.68060
C          5.20990       -0.41440       -1.50290
C          5.33840        1.11160        0.39590
C          4.82950        2.06490        1.18650
H          0.18350       -0.11210        0.91630
H          0.41910       -0.16340       -0.87170
H          0.54190        1.41050        0.01570
H          2.43170       -1.00780        0.35900
H          2.53690        0.54860        1.25030
H          2.88470        1.74770       -1.00800
H          2.72240        0.15460       -1.80680
H          4.68730       -0.93230       -2.30130
H          6.27450       -0.59630       -1.38660
H          6.38180        0.84130        0.53710
H          3.80670        2.40750        1.09110
H          5.45730        2.52620        1.94200
