16
2252	1
C          0.73940        0.09610        0.62950
N          2.10460        0.17200        0.10880
C          3.04670       -0.48170        1.02300
C          4.43500       -0.44140        0.44850
O          5.32640        0.12620        1.06340
C          4.71610       -1.09500       -0.85220
C          5.93470       -1.08670       -1.40390
H          0.04730        0.59850       -0.07870
H          0.66350        0.60280        1.61680
H          0.42130       -0.96410        0.72810
H          2.36520        1.18230        0.01610
H          2.76140       -1.54680        1.16960
H          3.03330        0.02920        2.01300
H          3.90710       -1.59750       -1.37460
H          6.77110       -0.59610       -0.91550
H          6.09940       -1.57730       -2.35780
