16
2216	1
N          3.10580        0.19660       -1.19560
C          2.35410       -0.06550        0.02320
C          2.87610       -1.31550        0.70190
C          2.07060       -2.36490        0.91180
C          4.30470       -1.35520        1.15240
C          4.43620       -0.83170        2.51530
C          4.54380       -0.39930        3.63600
H          2.75410        1.08250       -1.62200
H          2.94010       -0.57910       -1.87770
H          1.26970       -0.15790       -0.22800
H          2.47490        0.78830        0.72290
H          1.02730       -2.35200        0.59670
H          2.43870       -3.26240        1.40650
H          4.95050       -0.75530        0.45680
H          4.70030       -2.39490        1.13840
H          4.64570       -0.02120        4.61960
