12
2205	1
N         -0.11090        0.75240       -0.20800
N          1.13840        0.23190       -0.53060
C          2.24430        1.07580       -0.89460
N          2.12470        2.35810       -0.87520
O          3.45750        0.55460       -1.23490
C          3.74140       -0.71220       -1.63990
O          2.86480       -1.48820       -1.98520
H         -0.47810        1.27970       -1.03270
H         -0.01190        1.38570        0.61760
H          1.26180       -0.78560       -0.46870
H          1.25020        2.83560       -0.61920
H          4.77880       -1.01160       -1.73830
