17
2261	2
C          1.04030        0.40440       -0.36320
C          2.47180        0.00560       -0.01360
N          3.43500        0.83750       -0.71400
C          4.85420        0.66770       -0.55920
N          5.32980       -0.24370        0.21910
C          5.83070        1.52910       -1.28420
C          5.49950        2.51720       -2.12620
H          0.32650       -0.24620        0.18490
H          0.86590        0.28740       -1.45400
H          0.85580        1.46100       -0.07430
H          2.62170       -1.05820       -0.29900
H          2.61150        0.11770        1.08350
H          3.07600        1.56980       -1.33940
H          4.73690       -0.88630        0.76090
H          6.88840        1.34240       -1.11790
H          4.47670        2.77860       -2.35560
H          6.28570        3.09020       -2.60750
