13
2208	1
N          0.81590       -2.79440       -1.82080
N          1.35400       -2.00790       -0.80640
C          2.17280       -0.87010       -1.10070
N          2.42040       -0.53270       -2.31790
O          2.69910       -0.12060       -0.10120
N          2.50010       -0.41180        1.16870
C          2.99860        0.32840        2.08990
H          0.24410       -3.55240       -1.38240
H          1.60690       -3.24990       -2.33100
H          1.14460       -2.24400        0.17550
H          2.04790       -1.05530       -3.12280
H          2.83050        0.07950        3.13180
H          3.58830        1.20490        1.83670
