16
2233	1
F          0.95770       -1.47820        0.86970
C          2.32200       -1.68290        0.96350
C          3.01060       -1.11970       -0.28200
C          4.51860       -1.29990       -0.22410
C          5.30600       -0.21750       -0.11050
C          5.16420       -2.64530       -0.30040
C          4.49240       -3.77760       -0.54400
H          2.50600       -2.76760        1.08740
H          2.69930       -1.16050        1.86850
H          2.74760       -0.03960       -0.33030
H          2.61330       -1.59490       -1.20400
H          4.88190        0.78050       -0.05470
H          6.38700       -0.31650       -0.07100
H          6.24160       -2.71400       -0.17280
H          3.42210       -3.78870       -0.70760
H          5.02970       -4.71900       -0.59520
