13
2271	3
C          2.71840        0.64800       -0.89080
N          2.76710       -0.72330       -0.38060
N          3.59850       -0.80630        0.73950
C          4.95480       -0.69440        0.65090
O          5.49410       -0.51780       -0.43230
C          5.78440       -0.80440        1.86660
O          7.00000       -0.71430        1.79620
H          2.00290        0.69640       -1.73810
H          3.70950        0.98550       -1.25710
H          2.36230        1.33650       -0.09510
H          3.09560       -1.39420       -1.11390
H          3.16760       -0.99400        1.65700
H          5.31650       -0.96640        2.83220
