13
2305	2
C          0.63680       -0.25930       -0.21970
C          1.94020       -0.05700        0.05670
N          2.38580        0.85040        1.07930
C          1.51950        1.62930        1.90700
N          2.00820        2.41580        2.79750
C          2.94830       -0.80670       -0.73290
O          4.14140       -0.65900       -0.52150
H         -0.16220        0.24250        0.30390
H          0.34530       -0.95490       -1.00160
H          3.40140        0.94830        1.22860
H          0.44530        1.57900        1.80810
H          3.02580        2.50350        2.93560
H          2.63220       -1.49680       -1.50980
