10
2301	1
O          2.74770       -1.25490       -0.23930
C          2.25040       -0.19170        0.10110
C          3.10210        0.97280        0.53760
C          4.57970        0.69460        0.45600
O          5.27190        0.74790        1.46000
C          5.18670        0.39030       -0.81710
N          5.66940        0.15660       -1.84090
H          1.17140       -0.08290        0.09120
H          2.82190        1.23310        1.58150
H          2.87660        1.84280       -0.11380
