12
2314	3
N          1.86250       -1.52790       -0.05800
C          2.08620       -0.31260       -0.39420
N          3.39190        0.27360       -0.35600
C          4.63330       -0.34220        0.05010
N          4.71800       -1.56040        0.46480
C          5.88160        0.44870       -0.00220
O          5.87390        1.60810       -0.38410
H          0.90880       -1.91540       -0.10040
H          1.25310        0.30120       -0.72640
H          3.43880        1.25700       -0.66040
H          3.93880       -2.21530        0.55340
H          6.82040       -0.00410        0.30190
