14
2364	2
C          1.34990        0.66270        0.18270
N          2.49180       -0.23540        0.24120
N          3.49350        0.32600        1.02940
C          4.71840       -0.36490        1.22440
N          4.98600       -1.46310        0.65290
C          5.68500        0.16500        2.08060
C          6.51090        0.62310        2.81580
H          0.59980        0.26310       -0.51280
H          1.64210        1.66340       -0.16810
H          0.87740        0.75050        1.17150
H          2.84970       -0.35250       -0.72950
H          3.23250        0.90610        1.84000
H          4.24470       -1.81000        0.07870
H          7.26700        0.99410        3.45760
