11
2349	1
O          3.07410        0.87190        0.72900
C          2.34700        0.02040        0.24390
C          2.90500       -1.08700       -0.61130
O          2.11370       -1.91710       -1.04110
C          4.39620       -1.04230       -0.84320
C          4.87760       -2.11710       -1.67890
C          5.27430       -3.00290       -2.36770
H          1.25490       -0.01520        0.38100
H          4.89130       -1.08480        0.13330
H          4.63660       -0.07940       -1.30740
H          5.62110       -3.79960       -2.98520
