13
2376	2
C          0.93780       -0.05890       -0.04480
C          2.28240       -0.08620       -0.00970
N          3.13420        0.20600       -1.11180
C          2.71520        0.56710       -2.41470
N          3.60060        0.80560       -3.31350
C          2.93660       -0.42980        1.20920
C          3.57350       -0.70620        2.18400
H          0.36700        0.19200       -0.92900
H          0.38070       -0.30020        0.85990
H          4.15020        0.14790       -0.94040
H          1.66760        0.64540       -2.66700
H          4.60650        0.73400       -3.08420
H          4.12860       -0.94900        3.04070
