11
2323	3
N          1.35600       -1.18900        0.04240
C          2.11260       -0.39210        0.70430
N          3.24020        0.20520        0.07330
C          4.07160        1.05760        0.73700
O          3.86690        1.33560        1.91010
C          5.23470        1.66210        0.05440
O          5.47480        1.41110       -1.11600
H          0.53780       -1.62580        0.49100
H          1.88390       -0.17980        1.74590
H          3.42590       -0.01970       -0.91610
H          5.88590        2.33880        0.59870
