13
2290	1
C          0.93590        0.09090        0.26820
C          2.21850       -0.30120        0.30930
C          3.31010        0.60940       -0.21330
C          4.04240       -0.02630       -1.35720
O          3.44970       -0.31640       -2.38450
C          2.55660       -1.62820        0.87950
O          3.71740       -2.00080        0.94380
H          0.66080        1.05830       -0.14080
H          0.14570       -0.55300        0.64360
H          4.02360        0.82350        0.61080
H          2.89540        1.57910       -0.56590
H          5.10630       -0.22420       -1.27650
H          1.77070       -2.27880        1.25140
