15
2370	1
C          1.25260       -0.03510       -1.19620
C          2.05110       -0.11120       -0.11760
C          3.14690        0.87770        0.17460
C          4.50610        0.21620        0.23980
C          5.29980        0.13340       -0.83950
C          4.98020       -0.30200        1.49050
C          5.37280       -0.73480        2.54130
H          0.47220       -0.77580       -1.35320
H          1.35720        0.75140       -1.93480
H          1.90410       -0.91480        0.59180
H          2.92860        1.36780        1.14190
H          3.16050        1.68530       -0.57050
H          4.98240        0.51970       -1.79980
H          6.28350       -0.32840       -0.78560
H          5.72270       -1.11750        3.46500
