11
2380	3
N          0.72200        0.03610        0.42240
C          1.98300       -0.01790        0.18420
N          2.48410       -0.94270       -0.78710
C          3.80280       -1.05440       -1.08990
O          4.16870       -1.86310       -1.92860
C          2.85750        0.87080        0.91770
C          3.55410        1.62670        1.54860
H          0.05730       -0.57550       -0.07310
H          1.81300       -1.55260       -1.28000
H          4.54550       -0.43530       -0.59880
H          4.14630        2.29850        2.11330
