16
2352	1
N          0.93620       -0.35590        0.23060
C          2.32580        0.02950       -0.01050
C          3.26890       -1.16680        0.21350
C          4.71880       -0.80770       -0.01760
C          5.45680       -1.42150       -0.96220
C          5.35070        0.19430        0.80170
C          5.89150        1.02920        1.47860
H          0.33200        0.48360        0.08700
H          0.82450       -0.63410        1.23030
H          2.59200        0.86940        0.66850
H          2.42200        0.38790       -1.05760
H          2.96160       -1.99510       -0.45780
H          3.16380       -1.52650        1.25940
H          5.02990       -2.19040       -1.59810
H          6.50430       -1.16360       -1.10630
H          6.35550        1.76400        2.07930
