12
2296	1
C          1.21770       -0.31460       -0.46260
C          2.51630       -0.12810       -0.20530
C          3.07240        1.20570        0.13120
O          2.33190        2.17040        0.26110
C          4.55610        1.38460        0.29170
C          5.09220        0.48480        1.31900
N          5.51020       -0.23640        2.12170
H          0.85330       -1.30830       -0.70140
H          0.51590        0.51320       -0.44650
H          3.18560       -0.98270       -0.24370
H          4.79260        2.43440        0.56820
H          5.05160        1.15210       -0.67320
