10
2338	1
C          1.03810        0.18760       -0.13940
C          2.34190        0.01660        0.09070
O          2.99060       -1.00460       -0.49120
C          4.09420       -0.81510       -1.24180
O          4.44880        0.30870       -1.58810
C          3.05870        0.91000        0.95500
N          3.63590        1.62850        1.65040
H          0.50270       -0.50340       -0.77900
H          0.48680        1.01650        0.29740
H          4.61210       -1.68960       -1.58470
