13
2348	1
C          1.31740       -0.38350        0.66210
C          2.58520       -0.30650        0.24130
C          3.00480        0.63750       -0.81350
O          2.17110        1.19740       -1.51890
C          4.46940        0.88360       -1.01960
C          5.09830        1.45360        0.19310
C          5.61510        1.91710        1.18540
H          1.03520       -1.07420        1.45040
H          0.55170        0.26000        0.24400
H          3.35280       -0.93670        0.69070
H          4.61360        1.60880       -1.84620
H          4.96110       -0.06000       -1.30610
H          6.11610        2.25950        2.05740
