14
2444	1
N          2.95680       -0.20060        1.34980
C          2.54440       -0.05620       -0.04450
C          3.06580        1.25240       -0.65060
F          2.55960        2.33370        0.04910
C          4.56680        1.30510       -0.62350
N          5.23160        1.39980       -1.71800
O          6.54590        1.44850       -1.69650
H          2.59290       -1.11240        1.70970
H          2.52120        0.56020        1.92000
H          1.43350       -0.07250       -0.10700
H          2.93710       -0.91420       -0.63350
H          2.70650        1.31850       -1.70130
H          5.08830        1.26650        0.32990
H          7.04060        1.52030       -2.52370
