16
2414	1
C          0.64600       -0.19840       -0.39820
C          2.04780        0.00300        0.09780
C          3.09720       -0.56960       -0.52170
C          4.54470       -0.41460       -0.08020
O          5.31400        0.08580       -1.14350
C          4.78960        0.42650        1.18460
F          4.40910        1.74320        0.98800
H          0.20500        0.78680       -0.65610
H          0.03880       -0.66730        0.40370
H          0.60830       -0.84960       -1.29770
H          2.18460        0.62490        0.97390
H          2.91570       -1.18940       -1.39570
H          4.91010       -1.43990        0.14240
H          4.94380        0.97410       -1.39010
H          5.87180        0.40860        1.43420
H          4.23230        0.00180        2.04640
