15
2399	1
C          0.94100       -0.02480        0.04320
C          2.46820        0.04630        0.13460
C          2.95040        1.50230        0.15110
F          2.44890        2.18070        1.24950
C          2.93950       -0.66920        1.37890
C          3.74930       -1.73130        1.31410
F          4.15130       -2.34840        2.45550
H          0.58830        0.48570       -0.87830
H          0.46650        0.45940        0.92400
H          0.61180       -1.08530        0.00040
H          2.88810       -0.44120       -0.77400
H          2.62080        2.02250       -0.77360
H          4.06060        1.53210        0.18640
H          2.61190       -0.31230        2.35170
H          4.09350       -2.11180        0.35730
