15
2437	1
N          1.63310        1.22940        0.45070
C          2.81530        0.48070        0.03450
C          3.22760       -0.52690        1.11630
O          2.19460       -1.45100        1.33740
C          4.45100       -1.27780        0.67560
N          5.53310       -1.21830        1.36490
O          6.60470       -1.87700        0.97990
H          1.37440        1.89320       -0.31460
H          1.86730        1.79690        1.29770
H          3.65220        1.18970       -0.15750
H          2.58780       -0.06010       -0.91090
H          3.46640        0.01780        2.06170
H          1.57440       -1.04240        1.99660
H          4.41440       -1.87540       -0.23240
H          7.41560       -1.82910        1.50360
