13
2421	1
O          3.12940        0.50780        1.24410
C          2.52400        0.10220        0.04720
C          3.08860       -1.24760       -0.39790
F          2.41840       -1.65540       -1.54080
C          4.58000       -1.15670       -0.63100
C          5.14440       -1.42000       -1.81600
F          6.49160       -1.32100       -1.95950
H          2.72230        1.38290        1.47520
H          2.70920        0.85760       -0.74960
H          1.42830       -0.01030        0.20700
H          2.90180       -2.00030        0.39780
H          5.21850       -0.86770        0.19890
H          4.54640       -1.71280       -2.67260
