17
2431	1
C          3.32600       -1.18830       -0.16350
C          2.76280        0.16740        0.27260
C          3.13370        1.32060       -0.69430
N          2.39710        2.53310       -0.33590
C          4.60810        1.66130       -0.73910
N          5.45970        1.08630        0.03230
O          6.73280        1.41320       -0.01910
H          2.99300       -1.97120        0.54990
H          4.43330       -1.19250       -0.18270
H          2.94900       -1.45050       -1.17490
H          3.10230        0.40740        1.30390
H          1.65590        0.06270        0.29160
H          2.82460        1.02000       -1.71960
H          2.62850        2.81720        0.64460
H          1.36820        2.35440       -0.39720
H          4.94160        2.43210       -1.42960
H          7.36780        0.97540        0.56320
