16
2470	1
C          2.05550        0.34300        0.28930
O          2.51970       -0.87740        0.81530
N          3.03050       -1.58270       -0.21350
C          2.18070       -2.50220       -0.94480
C          4.41590       -1.45930       -0.52760
N          4.93520       -2.13890       -1.49100
N          6.26920       -2.02890       -1.80550
H          1.62860        0.94310        1.11880
H          1.24260        0.17760       -0.45180
H          2.88920        0.93330       -0.15100
H          1.14670       -2.47840       -0.53970
H          2.57310       -3.53680       -0.85000
H          2.14890       -2.21450       -2.01700
H          5.03280       -0.78080        0.05670
H          6.65710       -2.58420       -2.58070
H          6.89100       -1.39770       -1.27720
