15
2422	1
C          0.76270       -0.19180        0.01470
C          2.23670        0.06700        0.12060
C          3.08370       -0.87900        0.56130
C          4.57260       -0.64710        0.67750
F          4.92900        0.62430        0.25600
C          5.03280       -0.83390        2.12130
F          4.75280       -2.11730        2.55750
H          0.44260       -0.05480       -1.03900
H          0.21790        0.53250        0.65510
H          0.49420       -1.22110        0.33600
H          2.60490        1.04590       -0.16960
H          2.69550       -1.85330        0.84660
H          5.09530       -1.38490        0.03220
H          4.52420       -0.10170        2.78460
H          6.12910       -0.66890        2.18560
