13
2478	1
C          0.87310        0.13240       -0.03740
C          2.38220       -0.09300       -0.13230
C          2.75220       -1.40740        0.51640
C          3.30250       -2.47820       -0.06180
F          3.57970       -3.58090        0.65800
C          2.82050        0.01450       -1.53840
N          3.16610        0.09630       -2.64390
H          0.53380        0.10610        1.00430
H          0.31550       -0.63170       -0.59260
H          0.59630        1.10830       -0.45300
H          2.88160        0.70130        0.43730
H          2.55120       -1.47640        1.58440
H          3.58240       -2.61430       -1.09770
