20
2449	1
C          1.11280        0.43170        0.27670
N          2.56150        0.64040        0.18790
C          3.03190        0.84830       -1.19450
C          2.50530        2.16350       -1.78750
C          4.54220        0.90680       -1.18720
C          5.28490        0.02900       -1.87990
C          6.78370        0.09230       -1.86950
H          0.84510        0.16450        1.32110
H          0.78590       -0.39470       -0.39150
H          0.56250        1.36260        0.03290
H          3.01390       -0.22990        0.55690
H          2.68730        0.00680       -1.83970
H          2.81030        3.02650       -1.15730
H          1.40070        2.15370       -1.87740
H          2.91250        2.30520       -2.81180
H          5.02820        1.68380       -0.60210
H          4.80500       -0.74920       -2.46630
H          7.16230        0.92490       -1.23840
H          7.15040        0.23940       -2.90660
H          7.18740       -0.86310       -1.47510
