19
2473	1
C          0.86150       -0.92550        0.08120
C          2.35670       -0.98030       -0.02350
C          3.14540       -0.59710        0.99310
C          4.64940       -0.65160        0.88940
C          5.21000        0.77310        1.00880
C          5.16400       -1.63290        1.92840
C          6.01890       -1.32200        2.91380
H          0.46410       -0.25830       -0.71150
H          0.52560       -0.54240        1.06880
H          0.44760       -1.94500       -0.06290
H          2.79630       -1.34050       -0.94920
H          2.70050       -0.23710        1.91780
H          4.95570       -1.04210       -0.10640
H          4.93580        1.22960        1.98450
H          4.79870        1.41050        0.19660
H          6.31590        0.76180        0.90470
H          4.81300       -2.65940        1.86510
H          6.41390       -0.32190        3.04410
H          6.33270       -2.09140        3.61190
