21
2392	1
C          3.23850        0.53090       -1.16670
C          2.54290       -0.52580       -0.30700
C          3.16700       -0.64730        1.09760
C          2.38010       -1.65390        1.94220
C          4.60800       -1.09750        1.00810
C          5.60960       -0.33950        1.48110
C          7.03890       -0.78470        1.39090
H          2.73600        0.59440       -2.15480
H          4.30400        0.26690       -1.33370
H          3.18180        1.52510       -0.67450
H          2.58550       -1.50680       -0.83000
H          1.47510       -0.23190       -0.20540
H          3.09590        0.34400        1.60020
H          2.40370       -2.66360        1.47780
H          1.32160       -1.33030        2.03820
H          2.81590       -1.71920        2.96240
H          4.82620       -2.05770        0.54700
H          5.39600        0.62080        1.94160
H          7.13700       -1.77810        0.90260
H          7.46700       -0.84810        2.41280
H          7.61610       -0.04190        0.80220
