18
2425	1
C          3.07330        0.03790        1.24580
C          2.58440        0.20780       -0.19360
C          3.13880       -0.87780       -1.13770
C          2.55120       -0.71090       -2.54210
C          4.64190       -0.80570       -1.21830
N          5.35850       -1.80780       -0.85610
O          6.67080       -1.74690       -0.92430
H          2.62630        0.82830        1.88470
H          4.17850        0.12780        1.30180
H          2.76720       -0.95400        1.64110
H          2.87510        1.21710       -0.56040
H          1.47400        0.14740       -0.18440
H          2.82910       -1.87610       -0.75320
H          2.82610        0.27740       -2.97060
H          1.44350       -0.78830       -2.50640
H          2.93230       -1.51020       -3.21350
H          5.11730        0.10160       -1.58430
H          7.20470       -2.50430       -0.64980
