16
2428	1
C          0.97030        0.11020       -0.09700
C          2.44650       -0.18160       -0.38530
C          2.74450       -1.67520       -0.14800
O          4.11040       -1.92690       -0.33550
C          2.77730        0.28390       -1.78850
N          3.22250       -0.52820       -2.68020
O          3.50040       -0.09950       -3.89230
H          0.71790       -0.17390        0.94700
H          0.31520       -0.45950       -0.79130
H          0.76120        1.19500       -0.21750
H          3.06400        0.40960        0.32600
H          2.14220       -2.29430       -0.85150
H          2.47040       -1.93500        0.89950
H          4.23390       -2.90060       -0.18870
H          2.62840        1.33130       -2.04010
H          3.83510       -0.71530       -4.55780
