18
2466	1
C          1.61930        0.12690        0.05510
N          2.29820       -0.89520        0.85390
N          3.00280       -0.27750        1.89820
C          2.27970        0.28520        3.02190
C          4.43270       -0.22010        1.90870
N          5.12370       -0.69590        0.93140
C          6.56480       -0.63450        0.92310
H          1.07630       -0.36020       -0.78230
H          2.35860        0.84150       -0.36910
H          0.87660        0.68250        0.66390
H          2.94830       -1.40280        0.21160
H          1.18510        0.13800        2.90840
H          2.49080        1.37280        3.09880
H          2.59660       -0.21670        3.96060
H          4.93930        0.24570        2.75230
H          6.97640       -1.18910        1.79350
H          6.90230        0.42360        0.96000
H          6.94370       -1.09880       -0.01040
