14
2477	1
C          0.91560        0.36780        0.07330
C          2.33210       -0.20330        0.17100
C          2.56650       -0.81050        1.52730
O          1.88730       -1.74800        1.91780
C          2.54440       -1.24590       -0.90000
C          3.48610       -1.10650       -1.83920
F          3.64610       -2.06650       -2.78680
H          0.76200        1.14300        0.85440
H          0.15430       -0.43130        0.20780
H          0.76380        0.83990       -0.92110
H          3.05050        0.63700        0.04120
H          3.34680       -0.41240        2.16790
H          1.91530       -2.13220       -0.90890
H          4.12990       -0.23240       -1.85740
