14
2434	1
N          0.93090        0.00220        0.12030
C          2.38690       -0.06100       -0.01290
C          3.05480       -0.21460        1.36670
F          2.73160        0.85730        2.17950
C          2.74310       -1.17600       -0.96890
N          3.49970       -2.15180       -0.61050
O          3.79590       -3.11200       -1.45920
H          0.66110        0.82720        0.70370
H          0.57410       -0.86620        0.58290
H          2.74450        0.88940       -0.46580
H          4.15950       -0.24340        1.25140
H          2.72180       -1.15340        1.85930
H          2.34490       -1.14400       -1.98010
H          4.36480       -3.84270       -1.18250
