15
2498	1
N          0.86810       -1.26140        0.18040
N          2.24190       -1.21130        0.20780
C          2.91940       -0.84680       -0.82520
C          4.42820       -0.78870       -0.78770
O          4.93620       -1.11850        0.48510
C          5.00770       -1.65000       -1.89230
C          5.88640       -2.63900       -1.68080
H          0.35240       -1.55660        1.02100
H          0.34240       -1.00810       -0.67030
H          2.40820       -0.56590       -1.74320
H          4.71880        0.26120       -1.00130
H          4.61340       -2.02840        0.71970
H          4.69700       -1.44720       -2.91360
H          6.24300       -2.88760       -0.68770
H          6.26160       -3.21230       -2.52240
