14
2525	1
C          1.13080        0.07720        0.01340
N          2.57650       -0.07560        0.13090
C          3.12980       -0.97820        0.99260
O          2.43130       -1.69150        1.69740
C          3.44060        0.73350       -0.66980
N          2.95500        1.59650       -1.49460
N          3.77290        2.38230       -2.27200
H          0.56780       -0.60460        0.68470
H          0.81570       -0.13910       -1.02960
H          0.84280        1.11870        0.27060
H          4.20990       -1.07420        1.06300
H          4.51970        0.61940       -0.58190
H          4.79980        2.30210       -2.21570
H          3.35660        3.06330       -2.92220
