14
2570	1
O          2.94920       -0.56860        1.13190
C          2.39550       -0.10410       -0.06770
C          2.85880        1.31440       -0.32270
C          1.95530        2.30550       -0.39150
C          4.30330        1.64360       -0.50540
C          5.27510        0.72180       -0.48560
F          6.56740        1.10150       -0.66270
H          2.68720       -1.52300        1.20570
H          1.28560       -0.15470        0.00640
H          2.72270       -0.74190       -0.91870
H          0.89530        2.10660       -0.26530
H          2.26590        3.33000       -0.57520
H          4.58610        2.68060       -0.66800
H          5.05920       -0.32920       -0.33410
