11
2581	1
F          2.70730       -0.43480        0.93480
C          1.96910       -0.07090       -0.17770
C          2.84900        0.28380       -1.34460
O          2.32460        0.62470       -2.39500
C          4.33010        0.22520       -1.23620
C          5.12910        0.53720       -2.26380
F          6.47800        0.46900       -2.11790
H          1.33760        0.80360        0.08540
H          1.30940       -0.91820       -0.45920
H          4.78600       -0.07870       -0.29910
H          4.71790        0.84640       -3.21980
