17
2573	1
C          0.79250       -0.56530        0.05340
C          2.19120        0.03950       -0.06910
C          3.28500       -0.88430        0.40910
O          3.01460       -1.99670        0.84190
C          4.69350       -0.42750        0.34800
C          5.71190       -1.20210        0.75800
C          7.13330       -0.72700        0.69050
H          0.03900        0.16300       -0.31370
H          0.56680       -0.80440        1.11470
H          0.71740       -1.49100       -0.55640
H          2.22730        0.97550        0.52880
H          2.37720        0.29170       -1.13520
H          4.89750        0.56620       -0.04210
H          5.52130       -2.19710        1.14980
H          7.21150        0.30070        0.27500
H          7.71820       -1.41520        0.04570
H          7.56850       -0.73050        1.71130
