12
2578	1
O          2.40850        0.92350       -1.28220
C          1.99050        0.09730       -0.23030
C          3.09550       -0.07320        0.77270
O          2.91700        0.27320        1.93150
C          4.38890       -0.66330        0.35300
C          5.40320       -0.83650        1.20850
F          6.56930       -1.38200        0.77470
H          2.39060        1.85420       -0.93650
H          1.71670       -0.89610       -0.64340
H          1.07450        0.51740        0.24530
H          4.51700       -0.96490       -0.68260
H          5.31230       -0.54730        2.25100
