11
2557	1
F          0.80690        0.88190       -0.13540
C          2.14500        0.99590       -0.06070
C          2.93420        0.50400       -1.01670
C          4.42560        0.57620       -1.00080
F          4.93650       -0.68150       -1.11100
C          4.90690        1.35420       -2.11800
C          5.30370        1.99550       -3.03890
H          2.44380        1.51460        0.83900
H          2.47860       -0.00720       -1.85950
H          4.79340        0.98820       -0.05520
H          5.65990        2.56390       -3.86710
