14
2531	1
N          0.95560       -0.16970       -0.15050
N          2.33000       -0.19780       -0.12100
C          2.96710       -0.89940        0.75100
N          4.39370       -0.91310        0.76540
N          5.11650       -0.16260       -0.16020
C          5.07570       -1.70370        1.73850
N          6.36060       -1.74010        1.79500
H          0.47290        0.39560       -0.86280
H          0.39670       -0.70510        0.53150
H          2.41670       -1.48660        1.48300
H          4.86060        0.84460       -0.04460
H          4.85830       -0.48170       -1.12190
H          4.50470       -2.29070        2.45170
H          6.95290       -1.20360        1.14560
