14
2575	1
C          0.67620        0.02350       -0.23390
C          2.17600       -0.16510       -0.00510
C          2.53560       -0.38540        1.44420
O          1.66630       -0.40090        2.30560
C          3.95700       -0.58330        1.81310
C          4.34380       -0.78340        3.07850
F          5.66000       -0.95970        3.36440
H          0.48200        0.18010       -1.31590
H          0.30910        0.91120        0.32440
H          0.11850       -0.87760        0.09970
H          2.70790        0.73910       -0.37180
H          2.51800       -1.04220       -0.59550
H          4.70950       -0.56510        1.02990
H          3.62080       -0.80810        3.88810
