11
2544	1
O          0.88810        0.29230        0.18740
N          2.19320        0.18490        0.31320
C          2.95170        1.20260        0.11620
N          4.36670        1.07900        0.25440
O          4.89650       -0.10670        0.59630
C          5.19440        2.14050        0.05890
O          4.75280        3.23810       -0.24830
H          0.32310       -0.47750        0.33700
H          2.50730        2.15760       -0.15630
H          5.05880       -0.57570       -0.26290
H          6.26650        2.01570        0.17610
