12
2485	1
O          1.08260        0.10460       -0.09650
C          2.48670        0.10840       -0.00550
C          3.00240        1.51160        0.16580
O          2.23410        2.45900        0.22920
C          2.96730       -0.73860        1.15130
C          2.14120       -1.38260        1.98720
F          2.65350       -2.12510        3.00290
H          0.85290        0.35720       -1.02910
H          2.92140       -0.32840       -0.93350
H          4.07170        1.68650        0.23200
H          4.03870       -0.82900        1.30930
H          1.06380       -1.32630        1.87400
