12
2535	1
N          0.87120        0.11240        0.14590
N          2.26320        0.06150        0.11850
C          2.97610        1.03960       -0.51470
O          2.40360        1.96880       -1.06380
C          2.91680       -1.02880        0.76790
N          4.20020       -1.11430        0.79870
O          4.78630       -2.12100        1.40940
H          0.51380        0.10270       -0.83640
H          0.57670        0.99640        0.62010
H          4.06130        1.00720       -0.54160
H          2.31560       -1.79470        1.25170
H          5.75040       -2.17070        1.44240
