15
2522	1
C          0.95620       -0.16560       -0.00830
N          2.35820        0.20350        0.10780
C          2.84460        1.29900       -0.68940
N          4.06680        1.70680       -0.66280
C          3.19690       -0.53590        1.00850
N          2.70960       -1.50920        1.69950
N          3.49110       -2.23330        2.56920
H          0.41440        0.47820       -0.73400
H          0.45690       -0.06330        0.97870
H          0.87120       -1.21760       -0.35470
H          2.15560        1.81560       -1.35060
H          4.80230        1.29600       -0.07880
H          4.24410       -0.29300        1.12370
H          3.07310       -3.00500        3.10730
H          4.49210       -2.01720        2.69320
