14
2533	1
C          0.95150        0.00230        0.45750
N          2.34960        0.35220        0.57330
C          3.03870        0.79690       -0.42280
N          4.41770        1.13290       -0.27400
N          5.11720        1.57590       -1.39470
C          5.04690        1.02590        0.93370
O          6.22840        1.31600        1.04590
H          0.82380       -1.07310        0.70120
H          0.55540        0.18650       -0.56580
H          0.36480        0.60650        1.18040
H          2.57360        0.91460       -1.39890
H          5.91340        0.92120       -1.57530
H          5.48490        2.53690       -1.20520
H          4.50830        0.68420        1.81230
