12
2606	2
N          1.32080       -0.84430        0.31540
N          2.61960       -0.34990        0.23450
C          3.13860        0.09360       -0.94270
O          2.46180        0.06340       -1.96190
C          4.52770        0.61330       -0.98490
C          5.08980        1.05870       -2.11490
F          6.36600        1.52420       -2.09750
H          1.23440       -1.66700       -0.32470
H          0.65680       -0.09370        0.01590
H          3.19450       -0.32280        1.08950
H          5.10930        0.63340       -0.06800
H          4.54310        1.05540       -3.05280
