11
2609	2
O          2.92710        1.47720       -0.09880
N          2.40080        0.24930        0.02700
C          3.18970       -0.85590        0.02110
O          2.67590       -1.95890        0.14250
C          4.66460       -0.73680       -0.13090
C          5.46570       -1.80910       -0.14030
F          6.80750       -1.65070       -0.28180
H          2.84900        1.69130       -1.06390
H          1.38010        0.14960        0.13760
H          5.11290        0.24630       -0.23800
H          5.06200       -2.81150       -0.03630
