12
2590	2
O          1.93640       -0.19930        1.26410
C          2.51190        0.33570        0.10330
C          3.00480       -0.77420       -0.78990
O          2.20340       -1.58650       -1.22490
C          4.43080       -0.90710       -1.16000
N          5.30780       -0.07490       -0.72650
O          6.57290       -0.20460       -1.06310
H          1.00310       -0.44870        1.03410
H          3.33500        1.01400        0.40830
H          1.77430        0.96480       -0.44530
H          4.73480       -1.72470       -1.80940
H          7.22770        0.42510       -0.73340
