9
2652	2
O          1.01740       -0.35380       -0.03160
N          2.31640       -0.56180       -0.01610
C          3.01980       -0.30560       -1.05740
C          4.46960       -0.50990       -1.04110
O          5.21780        0.44220       -0.89070
C          5.00880       -1.80320       -1.36390
N          5.43530       -2.84670       -1.62430
H          0.49270       -0.49560        0.76680
H          2.54970        0.08760       -1.95290
