12
2630	1
C          2.55700       -0.78560        1.38450
O          3.70590       -0.52220        0.66840
C          3.69840       -0.04000       -0.60170
O          2.64330        0.18650       -1.17740
C          4.97030        0.21410       -1.29620
N          6.08700       -0.01810       -0.70690
O          7.22590        0.20800       -1.32540
H          2.83380       -1.16860        2.38810
H          1.94840       -1.55570        0.86370
H          1.96090        0.14390        1.50880
H          4.95900        0.60010       -2.31270
H          8.06320        0.03110       -0.87630
