14
2638	2
N          0.45600        0.11760        0.38190
C          1.80960       -0.12050        0.03560
C          2.79520        0.60390        0.58880
C          4.22070        0.38090        0.24910
O          4.53550       -0.48390       -0.55740
C          5.26170        1.21470        0.89500
C          6.56380        1.06040        0.62900
H         -0.28920       -0.44620       -0.05080
H          0.20320        0.84920        1.06270
H          2.03800       -0.89990       -0.68580
H          2.54580        1.37900        1.30850
H          4.96060        1.97680        1.60800
H          6.91040        0.31160       -0.07660
H          7.29460        1.69190        1.12380
