14
2632	1
F          0.78680       -0.76910        1.00930
C          2.08990       -1.13360        1.13170
C          3.02580       -0.48050        0.42740
C          4.49430       -0.77930        0.46840
C          5.29600       -0.02100       -0.30740
C          5.04550       -1.87890        1.33900
C          6.34450       -2.20560        1.42890
H          2.32640       -1.94700        1.80080
H          2.68570        0.32480       -0.21950
H          4.87770        0.76680       -0.92760
H          6.36710       -0.15250       -0.35230
H          4.36830       -2.46270        1.94540
H          7.12230       -1.70000        0.87520
H          6.64390       -3.01590        2.08630
