15
2674	1
C          0.91560       -0.01190       -0.10070
C          2.37800       -0.01990       -0.08320
C          3.58380       -0.02960       -0.06420
C          5.05080       -0.04540       -0.03500
F          5.53160        0.33130       -1.27600
C          5.57230        0.91160        1.03930
N          7.03080        0.89940        1.06810
H          0.54180        0.78400        0.57580
H          0.53800       -0.99580        0.24400
H          0.55700        0.18080       -1.13180
H          5.38940       -1.08030        0.18520
H          5.17880        0.61270        2.03690
H          5.22410        1.94390        0.81640
H          7.36130       -0.05270        1.34580
H          7.35380        1.57270        1.79990
