12
2620	3
N          1.29340        0.80820        1.19150
N          2.37430       -0.04170        1.18880
C          3.45650        0.25360        0.55710
C          4.61280       -0.66870        0.56150
O          5.62350       -0.35460       -0.04910
N          4.56660       -1.85060        1.22990
O          5.62240       -2.67860        1.22020
H          0.44070        0.54600        1.70540
H          1.32100        1.70720        0.68640
H          3.53280        1.19050        0.01010
H          3.71810       -2.12860        1.74510
H          6.11820       -2.47080        2.05350
