14
2616	2
C          2.40390       -0.80730       -0.72220
N          3.37510       -0.32940        0.23780
C          3.15420        0.78700        0.98300
O          2.11460        1.42010        0.85560
C          4.17270        1.24040        1.95210
N          3.97120        2.29600        2.66090
N          4.90530        2.73640        3.56890
H          2.78290       -1.72640       -1.21720
H          2.22420       -0.03330       -1.49850
H          1.44850       -1.04760       -0.20890
H          4.25550       -0.85410        0.35470
H          5.09460        0.67420        2.06140
H          4.71750        3.58390        4.12230
H          5.79420        2.23140        3.70650
