14
2607	2
C          0.94060       -0.38670        0.16470
C          2.39380       -0.07400        0.36790
C          2.98980        0.94200       -0.27880
C          4.42600        1.26100       -0.08610
O          5.10870        0.59380        0.67900
N          4.98490        2.29630       -0.76080
O          6.28110        2.59940       -0.59290
H          0.84030       -1.42310       -0.21930
H          0.46050        0.30730       -0.55820
H          0.41070       -0.30830        1.13650
H          2.96060       -0.69360        1.05700
H          2.41020        1.55350       -0.96530
H          4.41380        2.86520       -1.40400
H          6.74970        2.14000       -1.33640
