10
2775	1
F          0.71650        0.06880       -0.03180
C          2.07180        0.15860        0.00260
C          2.80820       -0.43390       -0.94440
F          2.18910       -1.12580       -1.93870
C          4.30910       -0.35310       -0.93040
C          4.87310       -1.68990       -0.72620
N          5.32410       -2.74180       -0.55490
H          2.54370        0.70560        0.81320
H          4.67700        0.30370       -0.11340
H          4.66220        0.06070       -1.89870
