18
2754	2
C          1.92610        0.09750       -0.76040
N          3.36330        0.07910       -0.67470
N          3.97650       -0.67650        0.30310
C          5.26220       -0.75140        0.45310
C          6.21060       -0.00090       -0.45050
N          5.80080       -1.56150        1.49640
C          4.94840       -2.30560        2.39620
H          1.60330        0.75170       -1.59790
H          1.49990        0.48710        0.18780
H          1.54880       -0.93120       -0.93880
H          3.90890        0.63420       -1.34980
H          6.07460       -0.33110       -1.50180
H          7.26640       -0.19100       -0.16550
H          6.02560        1.09110       -0.37220
H          6.82290       -1.62270        1.61780
H          4.28360       -1.60930        2.94990
H          5.56820       -2.86560        3.12810
H          4.33250       -3.02950        1.82180
