12
2685	1
C          0.85430        0.03110       -0.01810
C          2.31700        0.02140       -0.01770
C          3.52270        0.01160       -0.01900
C          4.99160       -0.00330       -0.02120
O          5.48530       -1.16270        0.59790
C          5.50490        0.11640       -1.39240
N          5.90860        0.20970       -2.47300
H          0.49090        1.03240       -0.32820
H          0.48240       -0.19810        1.00170
H          0.48010       -0.73440       -0.72870
H          5.34290        0.87750        0.55480
H          5.15510       -1.94720        0.08380
