16
2745	1
C          0.95270        0.11850        0.17180
C          2.38530        0.55920        0.10750
C          3.47650       -0.48930        0.00730
C          4.25830       -0.40960       -1.30990
O          3.41120       -0.63220       -2.40550
N          2.65590        1.82040        0.15650
O          3.89480        2.26500        0.13470
H          0.80160       -0.53090        1.05930
H          0.69780       -0.45170       -0.74600
H          0.26960        0.99150        0.24930
H          3.02450       -1.50360        0.06840
H          4.17120       -0.37610        0.86700
H          5.03880       -1.19950       -1.31040
H          4.79800        0.55640       -1.42150
H          2.99640        0.24140       -2.62970
H          4.06830        3.21490        0.17120
