19
2736	1
C          1.55720       -1.64240        0.71360
O          2.95440       -1.45700        0.70460
C          3.41100       -1.39350       -0.62980
C          4.89200       -1.08540       -0.62790
C          5.31570        0.22200        0.00920
C          5.75140       -1.97570       -1.19120
C          7.25020       -1.84040       -1.28490
H          1.22080       -1.70410        1.76880
H          1.27140       -2.60040        0.22500
H          1.03120       -0.77620        0.25430
H          2.90460       -0.57160       -1.18610
H          3.20800       -2.36040       -1.14600
H          4.81160        1.05930       -0.51720
H          6.39480        0.43840       -0.00170
H          4.99540        0.23190        1.07190
H          5.34220       -2.88450       -1.62380
H          7.68390       -0.92630       -0.85070
H          7.54230       -1.87030       -2.35510
H          7.71660       -2.70540       -0.76950
