12
2699	1
C          0.88720       -0.01090       -0.02110
C          2.34860       -0.06280       -0.06470
C          3.55280       -0.10570       -0.10180
C          4.99330       -0.15730       -0.14790
O          5.60140       -0.72330        0.74600
C          5.75270        0.47360       -1.27810
F          4.89640        1.06520       -2.19100
H          0.49420       -0.97430        0.36370
H          0.49290        0.16750       -1.04270
H          0.56590        0.81340        0.64830
H          6.35150       -0.30250       -1.79930
H          6.43820        1.24860       -0.87550
