17
2780	2
C          1.01730        0.12500        0.25270
C          2.49580       -0.01280        0.02280
C          3.04130       -0.63190       -1.05160
C          2.17850       -1.25150       -2.13600
N          4.46970       -0.69410       -1.15040
C          5.14300       -1.32240       -2.23970
N          6.42650       -1.35180       -2.28250
H          0.83800        0.67110        1.20240
H          0.54580       -0.87730        0.33120
H          0.55180        0.70040       -0.57500
H          3.15500        0.41570        0.77310
H          1.08960       -1.14910       -1.96500
H          2.39880       -2.33710       -2.20650
H          2.40480       -0.76670       -3.10850
H          5.04050       -0.26740       -0.40370
H          4.58610       -1.78370       -3.04660
H          6.99710       -0.92600       -1.53730
