19
2760	1
C          1.47300        1.49690       -1.42320
C          2.89380        1.96710       -1.69350
O          3.78510        1.14290       -1.03150
C          5.14750        1.24890       -1.03440
C          5.88370        0.21050       -0.22280
C          5.77330        2.24000       -1.73480
C          7.26050        2.47540       -1.82660
H          0.75270        2.15560       -1.95270
H          1.26070        1.53360       -0.33350
H          1.34140        0.45490       -1.78490
H          3.00060        3.01240       -1.32960
H          3.08180        1.92820       -2.78880
H          5.54220        0.27630        0.83130
H          6.98160        0.27860       -0.21220
H          5.62260       -0.79530       -0.61290
H          5.17200        2.94770       -2.29350
H          7.90370        1.77580       -1.27160
H          7.48070        3.49560       -1.44940
H          7.56120        2.42410       -2.89360
