17
2755	2
C          2.59430       -1.25840        0.24440
N          3.90780       -0.67280        0.31780
N          4.04210        0.70000        0.29430
C          5.18300        1.31180        0.35780
C          6.48500        0.55550        0.46520
N          5.21350        2.73780        0.32570
N          4.04400        3.48400        0.22650
H          2.66930       -2.36610        0.27530
H          2.10200       -0.95550       -0.70360
H          1.98210       -0.91320        1.10390
H          4.72660       -1.29430        0.38690
H          6.49310       -0.05700        1.39120
H          7.34750        1.25290        0.50790
H          6.61760       -0.10020       -0.42090
H          6.11590        3.23210        0.37640
H          3.43510        3.25710        1.04570
H          3.55380        3.21640       -0.65770
