12
2705	2
C          1.00820        0.07680        0.03980
C          2.47090        0.05250        0.05040
C          3.67630        0.03200        0.05970
C          5.11920        0.00610        0.07170
O          5.73680        0.72350       -0.69920
N          5.79110       -0.80380        0.92710
O          5.13080       -1.59600        1.78580
H          0.61980       -0.93800        0.26400
H          0.65070        0.39670       -0.96060
H          0.64440        0.78990        0.80790
H          6.82260       -0.80890        0.92750
H          5.07560       -2.47580        1.33170
