15
2723	1
C          0.92540        0.14010        0.01210
C          2.41520        0.35370        0.13310
C          3.36970       -0.79990       -0.13350
C          3.31040       -1.31180       -1.57420
F          2.07680       -1.86450       -1.86360
C          2.88220        1.56260        0.50180
F          4.21530        1.79760        0.63440
H          0.61190       -0.67330        0.69920
H          0.65250       -0.13080       -1.02650
H          0.34940        1.05360        0.27390
H          3.13960       -1.63330        0.56420
H          4.42010       -0.49200        0.05640
H          4.07650       -2.10460       -1.70790
H          3.52950       -0.48700       -2.28520
H          2.19590        2.38020        0.70050
