18
2747	1
C          1.17950       -0.14850        0.08280
N          2.63340       -0.21000       -0.07170
C          3.12510        0.94550       -0.83160
C          4.62780        0.88650       -0.95930
C          5.47260        1.99890       -0.38030
N          5.15680       -0.12260       -1.57570
N          6.51440       -0.27950       -1.75590
H          0.83400       -1.02870        0.66420
H          0.67620       -0.16050       -0.90860
H          0.88680        0.76730        0.63930
H          2.86540       -1.09010       -0.58940
H          2.82030        1.88180       -0.31500
H          2.68060        0.95500       -1.85220
H          4.84970        2.77730        0.10700
H          6.05760        2.48810       -1.18730
H          6.16320        1.58840        0.38600
H          6.86390       -1.10790       -2.25690
H          7.19610        0.40750       -1.40490
