18
2719	1
C          0.52670        0.06120        0.20930
C          2.02550        0.22690        0.17610
C          2.74550        0.95440       -0.72080
C          2.12330        1.71690       -1.87560
C          4.26210        0.98180       -0.57910
C          4.82640        2.37700       -0.29950
F          4.62570        3.23030       -1.36810
H          0.28760       -1.01890        0.12200
H         -0.04230        0.58930       -0.57090
H          0.15360        0.42450        1.18920
H          2.56110       -0.29700        0.96310
H          1.03200        1.62760       -1.97950
H          2.56380        1.35060       -2.82640
H          2.33140        2.79950       -1.77670
H          4.72520        0.57350       -1.50280
H          4.58610        0.33260        0.26400
H          5.92180        2.29620       -0.13510
H          4.36390        2.80320        0.61610
