16
2821	1
C          0.99340        0.01010       -0.16180
C          2.49300        0.09840       -0.03100
C          3.18660        0.90370        0.81390
C          2.54260        1.87080        1.78860
C          4.67120        0.83350        0.78170
N          5.37990        1.57210        1.55850
O          6.69330        1.50560        1.52570
H          0.68040       -1.03340        0.04910
H          0.71410        0.25560       -1.20740
H          0.40810        0.66880        0.49820
H          3.05520       -0.55880       -0.69010
H          1.44240        1.89850        1.78740
H          2.89210        2.89990        1.56190
H          2.85820        1.60890        2.82030
H          5.16550        0.15030        0.09410
H          7.22040        2.06390        2.11270
