19
2852	1
C          2.04980        0.21960       -1.40860
C          2.62930       -0.09650       -0.03110
C          2.91320       -1.57850        0.14990
C          1.73420       -2.53140        0.09410
C          4.19610       -1.97260        0.36900
C          4.68010       -3.38860        0.58190
O          5.63440       -3.70980       -0.39130
H          1.88000        1.31360       -1.49510
H          1.07590       -0.28850       -1.56180
H          2.75950       -0.09410       -2.20360
H          1.91620        0.23470        0.75390
H          3.55620        0.50740        0.08440
H          0.99860       -2.23890        0.87210
H          1.96590       -3.59460        0.25600
H          1.24440       -2.46930       -0.89820
H          4.97100       -1.21100        0.39610
H          3.90760       -4.17710        0.60480
H          5.17180       -3.43200        1.57590
H          5.13340       -3.88150       -1.23140
