14
2791	3
C          0.73350       -0.82540        0.24660
C          2.21300       -0.60170        0.08780
N          2.74590        0.71680       -0.09720
C          1.91870        1.87740       -0.14130
N          2.43650        3.04110       -0.30880
N          2.99610       -1.62670        0.12180
O          4.30040       -1.50510       -0.01040
H          0.36420       -0.28040        1.14040
H          0.50700       -1.90540        0.37890
H          0.19920       -0.46600       -0.65760
H          3.76420        0.83900       -0.20310
H          0.84320        1.79710       -0.03460
H          3.45420        3.16430       -0.41460
H          4.86430       -2.28940        0.01880
