17
2820	1
C          0.83750        0.08690       -0.14510
C          2.33510        0.08590        0.03010
C          3.03340        0.66930        1.03800
C          2.39730        1.43690        2.18080
C          4.51500        0.54820        1.02080
N          5.22750        1.08190        1.95150
N          6.59870        0.97930        1.95060
H          0.48240       -0.96440       -0.16320
H          0.59560        0.55570       -1.12140
H          0.25780        0.61650        0.62660
H          2.89160       -0.44150       -0.74090
H          1.29910        1.50820        2.16430
H          2.78860        2.47600        2.18120
H          2.67530        0.95360        3.14090
H          4.99980        0.00310        0.21330
H          7.14250        1.41610        2.70780
H          7.09470        0.47090        1.20260
