14
2873	1
N          1.89400        0.86020        0.91880
C          2.78450        0.00250        0.14450
C          3.03980        0.61140       -1.20920
F          1.98200        0.82200       -2.03960
C          4.28530        0.93930       -1.59760
C          4.57350        1.54620       -2.94130
F          5.44250        0.72570       -3.63520
H          1.73510        0.41580        1.85200
H          0.96710        0.92150        0.43750
H          2.31950       -0.99830        0.00830
H          3.73300       -0.13300        0.70990
H          5.12340        0.76650       -0.92820
H          5.05100        2.53730       -2.79540
H          3.65640        1.68820       -3.55040
