13
2841	3
C          1.32590       -0.20190        0.38450
C          2.74530        0.08450       -0.01670
C          3.77320       -0.98570        0.07980
N          3.45650       -2.15610        0.50440
O          4.36610       -3.10260        0.58960
N          3.04860        1.26450       -0.44120
O          4.27510        1.57490       -0.80690
H          1.29260       -0.50740        1.45130
H          0.91710       -1.02080       -0.24390
H          0.68600        0.69720        0.25400
H          4.80070       -0.78080       -0.20990
H          4.12100       -3.98100        0.91000
H          4.47470        2.46680       -1.12120
