13
2877	1
O          4.22160        0.90500       -0.23350
C          2.96710        0.28490       -0.14600
C          3.02190       -1.01120        0.62740
F          1.86090       -1.70480        0.77890
C          4.16450       -1.48990        1.16070
C          4.21070       -2.78060        1.92890
F          4.66620       -2.53240        3.20980
H          4.08130        1.73850       -0.75360
H          2.59370        0.05770       -1.16870
H          2.25370        0.96270        0.37220
H          5.09580       -0.94470        1.04570
H          4.91280       -3.47620        1.42430
H          3.21910       -3.27520        1.99460
