14
2808	1
C          0.80000       -0.16560       -0.04350
C          2.30280       -0.25000       -0.05700
C          3.02400       -0.39910        1.06920
F          2.39900       -0.47610        2.27550
C          4.52550       -0.48670        1.04380
C          5.12240        0.71310        1.65050
C          5.60980        1.69600        2.15190
H          0.47760        0.80150       -0.48140
H          0.37280       -0.24430        0.97840
H          0.38280       -0.98830       -0.65940
H          2.79870       -0.17310       -1.02250
H          4.92070       -0.58120        0.01140
H          4.84380       -1.39290        1.60900
H          6.05570        2.53870        2.61790
