13
2914	1
C          0.95450       -0.13840       -0.13420
C          2.45900       -0.05140       -0.10860
C          3.08100        1.27980        0.25750
F          2.67520        1.64770        1.52700
C          3.19620       -1.14510       -0.41140
C          4.60220       -1.14510       -0.41140
N          5.75320       -1.14510       -0.41140
H          0.54970        0.10510        0.87030
H          0.59410       -1.15110       -0.41610
H          0.55430        0.58950       -0.87060
H          2.74230        2.05040       -0.46620
H          4.18950        1.26930        0.24000
H          2.69840       -2.07530       -0.66850
