15
2910	1
C          1.05170        0.06380       -0.09250
C          2.55740        0.15950       -0.08880
C          3.32830       -0.94900        0.59240
O          4.03990       -0.43300        1.68310
C          3.15560        1.22060       -0.69100
C          4.61910        1.45670       -0.79480
O          5.44030        0.67250       -0.34940
H          0.74160       -0.87160       -0.60410
H          0.57080        0.91880       -0.61430
H          0.68010        0.04390        0.95350
H          4.01470       -1.42710       -0.14100
H          2.61880       -1.72160        0.96520
H          4.55850       -1.19170        2.05770
H          2.52480        1.97520       -1.15240
H          4.96670        2.35280       -1.29770
