16
2898	1
C          2.08550        0.34290        1.39950
N          3.36680        0.32630        0.74260
N          3.59190       -0.56330       -0.28730
C          4.71280       -0.64400       -0.93060
C          5.89050        0.24290       -0.60780
C          4.84240       -1.65140       -2.03610
F          5.86080       -2.53950       -1.74270
H          2.07780        1.11410        2.19870
H          1.88490       -0.65020        1.85320
H          1.29000        0.57870        0.66180
H          4.09570        0.98350        1.05660
H          5.61400        1.30840       -0.75210
H          6.74990        0.01710       -1.27420
H          6.21430        0.07720        0.44130
H          5.07270       -1.13050       -2.98900
H          3.89750       -2.22200       -2.16530
