12
2951	1
O          1.95380        1.11590       -0.90850
C          2.35740       -0.00130       -0.12950
C          2.88690        0.47740        1.18490
F          1.98990        0.93220        2.09370
C          4.18450        0.43380        1.52040
C          4.65320        0.86020        2.77550
C          5.04990        1.22120        3.83800
H          1.46280        0.76750       -1.67100
H          3.10570       -0.56610       -0.69470
H          1.49010       -0.64740        0.03950
H          4.91760        0.06580        0.81020
H          5.39670        1.54910        4.79010
