15
2960	1
C          0.96700       -0.04250        0.09670
C          2.46880        0.02580       -0.05270
C          3.01690        0.61180       -1.30820
O          2.25800        1.01370       -2.17640
C          3.24940       -0.44290        0.95390
C          4.76010       -0.45460        0.97200
O          5.22400        0.26970        2.07710
H          0.53990       -0.65740       -0.72320
H          0.54140        0.98150        0.04080
H          0.65320       -0.49270        1.06300
H          4.07800        0.69980       -1.48440
H          2.76570       -0.85160        1.83730
H          5.25670       -0.08330        0.05680
H          5.09160       -1.50790        1.08330
H          5.11860        1.23040        1.84900
