17
2903	1
C          2.33770        0.82290       -0.16250
N          3.76920        0.66920       -0.14160
N          4.31630       -0.57600        0.08790
C          5.59310       -0.80380        0.12340
C          6.60320        0.29180       -0.08680
O          6.05350       -2.06180        0.35580
C          5.23420       -3.15250        0.56410
H          2.07170        1.88320       -0.35900
H          1.91460        0.51960        0.81810
H          1.90490        0.18710       -0.96320
H          4.36100        1.49780       -0.29940
H          6.47590        0.74020       -1.09460
H          7.63240       -0.11900       -0.01590
H          6.48590        1.07390        0.69250
H          5.86170       -4.05230        0.72870
H          4.59040       -3.32430       -0.32500
H          4.60050       -2.99050        1.46240
