17
2945	1
C          2.03780       -1.50930       -0.59790
C          2.53640       -0.21270        0.02490
C          2.93770        0.81790       -1.01080
C          1.79610        1.46810       -1.75010
C          4.23720        1.11840       -1.19810
C          4.70580        2.06500       -2.12610
C          5.10260        2.86630       -2.91170
H          1.80920       -2.23870        0.18590
H          2.79390       -1.94790       -1.25760
H          1.12480       -1.35090       -1.18060
H          3.38320       -0.44710        0.68220
H          1.75910        0.20800        0.67420
H          1.27330        0.73240       -2.36910
H          2.11430        2.28120       -2.40840
H          1.08030        1.89270       -1.03820
H          4.99630        0.60620       -0.61200
H          5.45550        3.58360       -3.61520
