14
2938	2
C          3.34810        0.08910        0.89340
O          2.70830       -0.98870        0.31260
C          3.30350       -2.01290       -0.36810
N          2.45380       -3.02920       -0.88940
C          4.65480       -2.05500       -0.53820
C          5.38520       -3.12300       -1.25970
O          6.60030       -3.05950       -1.35150
H          2.59040        0.74460        1.36940
H          3.88710        0.67930        0.12190
H          4.05370       -0.25810        1.67800
H          1.43720       -2.95950       -0.73860
H          2.80460       -3.83820       -1.41430
H          5.26720       -1.26090       -0.12530
H          4.88120       -3.96430       -1.71260
