16
2941	1
C          0.87590       -0.26720       -0.09100
C          2.30440       -0.07790        0.32750
C          2.59760        0.61920        1.64190
N          3.26490        1.90110        1.42650
N          3.24390       -0.53600       -0.43270
N          4.57150       -0.43690       -0.09290
C          5.47520       -0.95080       -0.84440
H          0.33980       -0.86830        0.67280
H          0.81270       -0.79530       -1.06730
H          0.38300        0.72200       -0.19030
H          3.21100       -0.03920        2.29630
H          1.63940        0.81990        2.16850
H          4.21640        1.75820        1.02370
H          3.38930        2.36730        2.35360
H          6.51970       -0.86690       -0.56540
H          5.20600       -1.47520       -1.75720
