14
2925	1
O          3.54150       -0.04270        1.03250
C          2.44080        0.08860        0.17390
C          2.85360        0.18170       -1.27590
F          1.86920        0.31240       -2.20680
C          4.14190        0.14020       -1.66840
C          4.51220        0.23420       -3.09810
C          5.79150        0.19220       -3.47860
H          3.16980       -0.09390        1.95120
H          1.87910        1.01380        0.42980
H          1.77660       -0.79650        0.28450
H          4.93530        0.03610       -0.93400
H          3.74150        0.33890       -3.85660
H          6.58880        0.08820       -2.74840
H          6.04630        0.26240       -4.53110
