14
2980	1
C          0.95880        0.45720        0.52900
O          2.29150        0.18070        0.10430
C          3.06080       -0.36260        1.09950
C          4.39820       -0.46170        1.02070
C          5.18650        0.02370       -0.16120
C          5.10120       -1.04430        2.08990
N          5.67670       -1.52130        2.96520
H          0.42620        0.92290       -0.30520
H          0.95650        1.15550        1.37290
H          0.43750       -0.46820        0.79640
H          2.50060       -0.72510        1.95520
H          4.55630        0.46380       -0.94040
H          5.74050       -0.80510       -0.61550
H          5.90640        0.78870        0.14980
