12
3032	1
C          0.95910        0.52510        0.18370
O          2.25880        0.08990        0.05230
C          2.96120       -0.20280        1.16810
C          4.29320       -0.29980        1.14920
F          4.99120       -0.13050       -0.00390
C          5.00530       -0.54050        2.37750
C          5.60560       -0.74170        3.40260
H          0.50500        0.72180       -0.80630
H          0.96750        1.47130        0.76850
H          0.34880       -0.22720        0.73010
H          2.42480       -0.32300        2.10590
H          6.13800       -0.91810        4.29920
