15
2991	1
C          1.16720        0.06180       -0.29590
C          2.66580        0.18400       -0.11850
C          3.42860       -0.94780        0.50620
C          2.84010       -2.07810        0.92090
C          3.27140        1.32540       -0.53560
C          4.72240        1.60860       -0.43770
O          5.15290        2.67410       -0.84790
H          0.68340       -0.07630        0.69380
H          0.93710       -0.80950       -0.94440
H          0.71700        0.96120       -0.76820
H          4.49840       -0.88080        0.64200
H          1.77250       -2.24010        0.82790
H          3.44160       -2.86440        1.36590
H          2.65960        2.10670       -0.98000
H          5.42140        0.90290       -0.01360
