20
3071	1
C          2.57480       -0.63650        1.73850
C          2.45280       -0.04090        0.32700
N          2.80630        1.38160        0.33740
C          3.26250       -0.84460       -0.73810
N          3.05420       -0.29030       -2.07940
C          4.77410       -1.02660       -0.45510
N          5.50990        0.23330       -0.41900
H          1.90580       -0.09130        2.43870
H          3.61250       -0.54950        2.12070
H          2.27660       -1.70650        1.73260
H          1.38060       -0.11740        0.03150
H          3.75510        1.52650        0.74460
H          2.12670        1.90110        0.93930
H          2.84090       -1.87530       -0.74150
H          3.36100        0.70750       -2.12270
H          2.03700       -0.32460       -2.32160
H          5.21050       -1.68200       -1.24070
H          4.90680       -1.55360        0.51250
H          5.52220        0.66080       -1.37170
H          6.50160        0.02510       -0.16270
