11
3039	1
N          0.95400        0.16580       -0.13170
C          2.34080        0.08280       -0.00560
C          2.98210       -0.56150        0.97320
C          2.28110       -1.23800        2.00110
N          1.69120       -1.78160        2.82690
C          3.04330        0.74360       -1.00940
C          3.64450        1.30660       -1.86480
H          0.31760       -0.26550        0.52360
H          0.58460        0.69380       -0.93390
H          4.06450       -0.58020        1.00190
H          4.15400        1.81060       -2.63050
