20
3068	1
C          1.02450        0.14180        0.14260
C          2.54110       -0.11630        0.09320
C          3.02230       -0.61990        1.46330
C          2.98760       -1.07320       -1.05990
N          2.39790       -2.41280       -0.95890
C          2.69270       -0.48360       -2.45200
O          3.24960       -1.29060       -3.45540
H          0.79210        0.86740        0.95120
H          0.46150       -0.79140        0.35030
H          0.66050        0.58430       -0.80590
H          3.04260        0.86220       -0.07940
H          2.53350       -1.57600        1.74240
H          2.78160        0.12720        2.24970
H          4.12370       -0.76390        1.45500
H          4.09430       -1.17590       -0.99260
H          1.35560       -2.37480       -1.01830
H          2.68910       -2.88870       -0.07650
H          3.15170        0.52460       -2.53350
H          1.60130       -0.35770       -2.62820
H          2.60500       -2.02620       -3.62570
