14
3027	1
C          0.95400        0.08840       -0.11610
C          2.44680       -0.19800       -0.06470
C          2.83980       -0.81590        1.24400
C          3.36120       -2.04250        1.36650
F          3.55230       -2.80390        0.26790
C          3.72580       -2.58920        2.62370
C          4.03600       -3.05660        3.68540
H          0.69120        0.55390       -1.07140
H          0.65250        0.77070        0.68600
H          0.37100       -0.83350       -0.01700
H          3.00140        0.73880       -0.19110
H          2.71830       -0.84360       -0.90770
H          2.69210       -0.20790        2.13340
H          4.31250       -3.47510        4.62510
