19
3078	1
C          1.43070        0.78050        0.08910
C          2.92330        0.77300       -0.24250
C          3.31210       -0.28840       -1.30010
N          2.67170       -0.02640       -2.59380
C          4.84700       -0.33050       -1.46910
C          5.28830       -1.42320       -2.44330
F          5.31700        0.89340       -1.91690
H          1.23500        1.53280        0.88220
H          1.11560       -0.21680        0.46320
H          0.82040        1.05370       -0.79530
H          3.46890        0.55270        0.70110
H          3.22410        1.78610       -0.58840
H          2.98580       -1.28780       -0.93170
H          2.89280        0.94070       -2.92310
H          1.63670       -0.14250       -2.52540
H          5.31300       -0.54680       -0.48240
H          4.87660       -1.23650       -3.45770
H          4.94530       -2.41830       -2.08830
H          6.39660       -1.43490       -2.51160
