15
2993	1
C          0.90220        0.14700       -0.06480
C          2.34980       -0.26310        0.06910
C          2.64490       -1.61780        0.61360
O          1.73070       -2.36010        0.93650
C          3.31840        0.60850       -0.30770
C          4.77820        0.33890       -0.23130
C          5.65810        1.26290       -0.62720
H          0.37720       -0.55960       -0.74150
H          0.78460        1.17130       -0.47890
H          0.41550        0.12180        0.93290
H          3.65720       -1.97460        0.73570
H          3.01650        1.57880       -0.69560
H          5.16430       -0.59960        0.14170
H          5.32740        2.22380       -1.01060
H          6.72230        1.05830       -0.56820
