21
3051	1
C          1.32290        0.45100       -0.32860
C          2.79800        0.06040       -0.53710
N          3.65170        1.20350       -0.19740
C          3.22410       -1.18590        0.29810
C          2.37080       -2.42560       -0.03810
C          4.71990       -1.50490        0.05470
N          5.16250       -2.63200        0.87200
H          1.08310        1.35340       -0.93020
H          1.12590        0.67490        0.74150
H          0.63620       -0.34940       -0.66780
H          2.94080       -0.17050       -1.61670
H          3.50330        1.48150        0.80060
H          3.41870        2.01810       -0.81110
H          3.08770       -0.95250        1.37780
H          2.46440       -2.68500       -1.11430
H          1.30270       -2.26110        0.20530
H          2.69320       -3.29870        0.56700
H          5.34860       -0.62170        0.30370
H          4.87960       -1.74880       -1.01900
H          5.08310       -2.37460        1.88260
H          6.17150       -2.81550        0.66770
