14
2992	1
C          0.89630        0.18900        0.19900
C          2.40450        0.27340        0.12870
C          3.05870        1.31030       -0.73500
C          2.36500        2.19070       -1.46830
C          3.14070       -0.59940        0.85570
C          4.54670       -0.59940        0.85570
N          5.69770       -0.59940        0.85570
H          0.48560       -0.01220       -0.81270
H          0.48560        1.14760        0.57980
H          0.54810       -0.62180        0.87430
H          4.14210        1.36460       -0.78020
H          1.28110        2.20230       -1.47790
H          2.89370        2.91900       -2.07490
H          2.64400       -1.34140        1.47380
