13
3028	1
N          1.74620        0.39840       -1.52010
C          2.40170        0.06920       -0.26230
C          2.93190       -1.32220       -0.31250
C          4.18800       -1.65170        0.01180
F          5.04800       -0.69300        0.41860
C          4.65680       -2.97640       -0.03670
C          5.05340       -4.09780       -0.07780
H          1.49150        1.38510       -1.51090
H          0.86850       -0.11370       -1.58980
H          1.68030        0.15800        0.55710
H          3.19990        0.79610       -0.07790
H          2.24300       -2.10250       -0.62320
H          5.41290       -5.09960       -0.11580
