22
3047	1
C          3.25210       -0.97750        0.68620
C          2.63680        0.42860        0.59280
C          2.89590        1.19210        1.90430
C          3.11090        1.18720       -0.69050
C          2.31640        2.49260       -0.88680
C          4.63350        1.47160       -0.71930
N          5.02640        2.09860       -1.97890
H          2.81390       -1.52780        1.54630
H          4.35010       -0.93780        0.83680
H          3.03230       -1.55590       -0.23630
H          1.53700        0.28290        0.50080
H          3.98190        1.34170        2.07580
H          2.48940        0.61600        2.76300
H          2.38790        2.17690        1.90460
H          2.86730        0.53330       -1.55800
H          2.53470        3.22750       -0.08520
H          1.22600        2.28100       -0.89760
H          2.57430        2.96410       -1.85840
H          5.20820        0.52860       -0.60730
H          4.90950        2.14950        0.11620
H          4.84380        1.43310       -2.76510
H          6.05510        2.28490       -1.95230
