16
3113	1
C          0.88520        0.05930       -0.06730
C          2.41340        0.01940        0.08440
N          2.86820        1.14080        0.91050
C          2.87110       -1.32110        0.69810
F          2.43700       -2.36960       -0.09670
C          4.39490       -1.40110        0.81780
F          4.75700       -2.61890        1.36430
H          0.57350        1.02080       -0.52770
H          0.39070       -0.03900        0.92290
H          0.53760       -0.76520       -0.72510
H          2.86410        0.11760       -0.92860
H          2.42220        1.09700        1.85620
H          2.59980        2.04440        0.45670
H          2.42600       -1.43820        1.71070
H          4.77880       -0.59220        1.47460
H          4.86360       -1.30410       -0.18470
