19
3129	1
C          0.89510       -0.03990       -0.13450
N          2.34520       -0.25000       -0.19670
C          2.88270       -0.92390        1.00470
C          2.39690       -2.38320        1.10240
C          4.43240       -0.85490        1.01530
C          5.09350       -1.50750       -0.20300
F          4.83120        0.47030        1.07500
H          0.57320        0.55160       -1.01770
H          0.61340        0.52160        0.78300
H          0.34860       -1.00280       -0.17680
H          2.77530        0.70170       -0.26930
H          2.53800       -0.39120        1.92060
H          2.66860       -2.96100        0.19550
H          1.29710       -2.43370        1.22730
H          2.84390       -2.87360        1.99310
H          4.81000       -1.35700        1.93270
H          4.75850       -1.01610       -1.14060
H          4.86450       -2.59090       -0.25430
H          6.19600       -1.39940       -0.12510
