18
3098	1
C          1.23400       -0.44040       -0.10750
C          2.75310       -0.36490        0.03570
C          3.19850        0.92130        0.76150
O          2.63010        0.99650        2.04700
C          4.73720        1.02470        0.83120
C          5.18660        2.33510        1.47640
F          5.25970       -0.03810        1.55020
H          0.95750       -1.37170       -0.64530
H          0.85760        0.42950       -0.68670
H          0.74730       -0.45270        0.89060
H          3.20140       -0.38640       -0.98160
H          3.10740       -1.25920        0.59320
H          2.82660        1.78790        0.17110
H          2.93310        0.20150        2.55890
H          5.15030        0.98810       -0.20060
H          4.81730        2.40420        2.52160
H          4.80270        3.20150        0.89670
H          6.29590        2.38290        1.49060
