21
3131	1
C          1.20580        0.13560        0.03920
O          2.38310        0.23480       -0.73080
C          2.85090       -1.05080       -1.11140
C          2.46720       -1.31610       -2.57250
C          4.38120       -1.14340       -0.86750
C          5.17890       -0.08220       -1.64490
C          4.68620       -1.01710        0.63280
H          0.83970        1.16070        0.25250
H          1.41200       -0.35280        1.01710
H          0.39950       -0.38990       -0.51870
H          2.39490       -1.87770       -0.51080
H          2.87150       -0.53450       -3.24710
H          1.36170       -1.31150       -2.67560
H          2.84330       -2.31020       -2.89520
H          4.72990       -2.14820       -1.19530
H          4.86940        0.94260       -1.34820
H          5.04220       -0.19880       -2.73860
H          6.26450       -0.19640       -1.43810
H          4.36960       -0.02520        1.02090
H          5.77550       -1.13750        0.81550
H          4.15420       -1.80910        1.20190
