20
3144	1
C          3.41560       -0.84860       -1.00920
C          2.65570       -0.38010        0.24270
N          2.61270       -1.44690        1.24830
C          3.25370        0.93110        0.82340
C          2.43290        1.42620        2.02020
C          4.70000        0.76800        1.24370
C          5.67810        1.48250        0.67710
H          2.92660       -1.75080       -1.43480
H          4.46800       -1.10420       -0.76290
H          3.41140       -0.05150       -1.78220
H          1.60990       -0.15780       -0.06880
H          3.57800       -1.76220        1.49330
H          2.09280       -2.26720        0.86190
H          3.18020        1.70970        0.03030
H          2.46040        0.69200        2.85410
H          1.37520        1.58740        1.72110
H          2.84000        2.39240        2.38830
H          4.95430        0.05930        2.02600
H          5.46380        2.20320       -0.10630
H          6.70510        1.34630        0.99950
