16
3166	1
C          3.49880       -0.33920       -1.44070
C          2.71150       -0.20130       -0.13630
F          2.68120       -1.42670        0.50960
C          3.30120        0.88180        0.79210
O          2.48520        1.05450        1.92340
C          4.71470        0.55440        1.22420
C          5.74470        1.35120        0.92240
H          3.01960       -1.10580       -2.08560
H          4.54440       -0.65430       -1.24010
H          3.50880        0.62730       -1.98800
H          1.66880        0.08580       -0.39400
H          3.28940        1.84340        0.23200
H          2.48490        0.20300        2.43490
H          4.89720       -0.35200        1.79450
H          5.59850        2.26420        0.35350
H          6.74590        1.08760        1.24710
