17
3160	1
C          0.88590       -0.39100       -0.03520
C          2.37480       -0.04090       -0.20110
C          2.80120       -0.24630       -1.66110
C          2.71640        1.39850        0.27060
O          2.07290        2.37530       -0.51530
C          2.44100        1.59000        1.74460
O          1.69280        2.47190        2.13690
H          0.70960       -1.44580       -0.33590
H          0.24360        0.25760       -0.66660
H          0.57500       -0.28500        1.02530
H          2.96050       -0.75230        0.42350
H          2.23940        0.43330       -2.33720
H          2.60920       -1.29510       -1.97350
H          3.88800       -0.04690       -1.77550
H          3.81100        1.54430        0.14420
H          1.10080        2.34310       -0.32120
H          2.92090        0.93780        2.46710
