20
3132	1
C          3.25000       -1.66380       -1.72780
O          3.92650       -2.48720       -0.80350
C          3.58830       -2.13790        0.53040
C          2.45940       -3.04920        1.03220
C          4.85370       -2.21510        1.42190
C          5.50270       -3.61120        1.43990
N          5.82700       -1.21480        0.97520
H          3.51750       -1.99610       -2.75170
H          3.57410       -0.60410       -1.63270
H          2.14720       -1.76470       -1.63010
H          3.22490       -1.08380        0.62080
H          2.74260       -4.11890        0.96560
H          1.55010       -2.90190        0.41300
H          2.20440       -2.80130        2.08440
H          4.55720       -1.95950        2.46370
H          5.81670       -3.91400        0.41820
H          4.80710       -4.37290        1.84580
H          6.39920       -3.60150        2.09550
H          6.18090       -1.45110        0.01940
H          6.64080       -1.19740        1.63240
