16
3250	2
N          1.35680       -0.13540        0.63350
C          2.79350       -0.02390        0.39720
C          3.25190       -0.99820       -0.71260
N          2.55640       -0.72020       -1.97160
C          4.74870       -0.93700       -0.94930
N          5.32260       -1.75710       -1.86050
O          5.44630       -0.15250       -0.32160
H          1.08820        0.54990        1.37610
H          1.14120       -1.09440        0.99110
H          3.33620       -0.25160        1.34240
H          3.03170        1.02100        0.09930
H          3.00940       -2.03510       -0.39030
H          2.72690        0.26910       -2.26660
H          1.52740       -0.86610       -1.85580
H          4.75090       -2.42560       -2.39740
H          6.33930       -1.72140       -2.02720
