11
3211	1
O          0.91630       -0.11860        0.13460
C          2.31480       -0.07050        0.06340
C          2.88790       -0.65890        1.28520
C          3.33440       -1.13200        2.30080
C          2.77760       -0.84840       -1.17220
F          4.15410       -0.77500       -1.30200
F          2.39890       -2.17800       -1.08170
H          0.64400        0.52460        0.84220
H          2.65100        0.98600       -0.04240
H          3.71110       -1.55780        3.19280
H          2.31560       -0.40900       -2.08190
