14
3274	2
N          1.55880       -0.66080       -0.02540
C          2.87850       -0.44840        0.18550
O          3.55070       -1.31730        0.72210
C          3.51320        0.85990       -0.25040
O          2.86330        1.94890        0.35630
C          5.03090        0.93780       -0.00190
O          5.32140        0.89360        1.37210
H          1.11990       -1.54710        0.26540
H          0.97860        0.05990       -0.47940
H          3.35790        0.94290       -1.34770
H          2.92020        1.82580        1.34030
H          5.42490        1.89230       -0.41130
H          5.54740        0.11710       -0.55430
H          5.72610        0.00770        1.56290
