17
3233	1
C          3.46480        1.02640       -0.38500
C          2.79470       -0.30590       -0.72470
C          3.26500       -1.45430        0.19250
C          2.49550       -2.74120       -0.12690
C          4.74890       -1.69890        0.05730
O          5.55220       -1.55240        1.13220
O          5.22490       -2.02600       -1.02080
H          3.07370        1.81970       -1.05630
H          4.56450        0.96290       -0.52360
H          3.24520        1.31020        0.66620
H          3.00060       -0.55690       -1.78860
H          1.69680       -0.17390       -0.60600
H          3.04000       -1.17810        1.24690
H          2.67680       -3.06180       -1.17570
H          1.40500       -2.58030        0.01150
H          2.81450       -3.55670        0.55710
H          6.50610       -1.70250        1.06810
