15
3240	1
C          1.09320       -0.17430        0.14850
C          2.58620        0.06560       -0.09970
C          2.93990       -0.14680       -1.57670
F          2.64730       -1.44370       -1.96120
C          2.95130        1.47330        0.31490
F          2.35730        2.52950       -0.30390
C          3.84830        1.70350        1.27980
H          0.81630       -1.21310       -0.13070
H          0.47430        0.53130       -0.44700
H          0.85950       -0.03320        1.22560
H          3.15940       -0.67530        0.50230
H          4.02650        0.02640       -1.73200
H          2.37320        0.55780       -2.22310
H          4.34100        0.88400        1.79410
H          4.09410        2.72250        1.56020
