14
3267	1
C          2.68310       -1.48820        0.43700
C          2.54370       -0.00990        0.21450
O          1.82700        0.64170        0.96030
C          3.25670        0.66890       -0.93980
O          2.91690        2.03270       -1.01650
C          4.78210        0.50320       -0.86970
F          5.28410        1.06210        0.29290
H          2.07280       -1.81170        1.30720
H          3.74140       -1.75020        0.64000
H          2.33520       -2.03500       -0.46420
H          2.90840        0.18820       -1.87910
H          3.25620        2.48010       -0.19720
H          5.25100        1.00390       -1.74320
H          5.06170       -0.57020       -0.90410
