17
3227	1
C          1.01850       -0.06440       -0.03210
C          2.50730        0.27760        0.10610
C          3.04970        0.97010       -1.15820
O          2.38310        2.17690       -1.40740
C          2.75750        1.10690        1.35960
N          2.13590        2.37250        1.53190
N          3.53130        0.66120        2.28670
H          0.85710       -0.71460       -0.91830
H          0.40170        0.85100       -0.15120
H          0.67010       -0.61330        0.86890
H          3.05660       -0.68630        0.19590
H          2.90900        0.28750       -2.02660
H          4.13810        1.16180       -1.02220
H          2.79740        2.55730       -2.22490
H          1.48730        2.74820        0.82730
H          2.31300        2.92310        2.38480
H          4.00180       -0.25250        2.21020
