15
3209	1
C          0.96710        0.01470        0.00860
C          2.49420        0.14190        0.01100
O          2.94630        0.46840       -1.28090
C          3.03760        1.13970        1.06780
O          4.44320        1.15160        1.06520
C          2.53980        2.51240        0.87470
C          2.15480        3.64030        0.69180
H          0.67210       -0.76480       -0.72510
H          0.49450        0.97160       -0.29740
H          0.59030       -0.27470        1.01120
H          2.91320       -0.85530        0.26970
H          2.53810        1.33710       -1.53500
H          2.71750        0.80430        2.08050
H          4.75010        1.17830        0.12040
H          1.83540        4.63940        0.54980
