12
3206	1
N          0.94690       -0.10530       -0.03780
C          2.40930       -0.05430       -0.05730
C          2.91920       -0.51820       -1.36060
C          3.33100       -0.90730       -2.42480
C          2.89730        1.36720        0.24600
F          4.28030        1.39780        0.29460
F          2.45800        2.25580       -0.72100
H          0.63000       -1.08760       -0.21160
H          0.55050        0.50500       -0.78990
H          2.79850       -0.73310        0.73250
H          3.68600       -1.24980       -3.36100
H          2.50460        1.69110        1.23340
