18
3226	1
C          0.97200       -0.22420        0.08670
C          2.46760        0.07080       -0.09420
C          2.82920        0.29310       -1.57590
N          2.52100       -0.88980       -2.37570
C          2.86540        1.28380        0.73180
N          2.28210        2.55290        0.47490
N          3.73600        1.17330        1.67330
H          0.68540       -1.13900       -0.47380
H          0.34840        0.61960       -0.27700
H          0.74730       -0.39760        1.16090
H          3.03160       -0.81900        0.26510
H          3.91680        0.51550       -1.66120
H          2.26550        1.16020       -1.98330
H          3.11210       -1.68860       -2.04910
H          2.77500       -0.69320       -3.37080
H          1.58260        2.67200       -0.27100
H          2.55510        3.37210        1.03720
H          4.18510        0.27250        1.89480
