15
3266	1
C          1.04080        0.11070        0.10780
C          2.53910        0.05870        0.13280
O          3.11280       -0.28420        1.15680
C          3.32670        0.42490       -1.10940
O          3.02200        1.73770       -1.50820
C          4.84790        0.26010       -0.93450
O          5.51820        0.59330       -2.12000
H          0.62050       -0.19000        1.09130
H          0.65680       -0.58070       -0.67100
H          0.70400        1.14300       -0.12210
H          3.00500       -0.26430       -1.91980
H          3.29110        2.34500       -0.76920
H          5.10040       -0.78300       -0.63400
H          5.21300        0.92960       -0.12620
H          5.41420       -0.18070       -2.73300
