17
3238	1
C          1.02850        0.15720       -0.22130
C          2.50310       -0.05990        0.14120
C          2.83900        0.54080        1.51860
N          2.59920        1.98150        1.53680
C          2.80760       -1.54170        0.14900
F          2.14580       -2.35740        1.01380
C          3.71710       -2.06910       -0.67770
H          0.79190        1.24150       -0.25990
H          0.36210       -0.32570        0.52570
H          0.81570       -0.27490       -1.22260
H          3.12660        0.45330       -0.62560
H          3.90970        0.34770        1.75580
H          2.21650        0.05820        2.30450
H          3.24080        2.44480        0.85280
H          2.83320        2.34520        2.48870
H          4.26420       -1.44720       -1.37950
H          3.91910       -3.13510       -0.65330
