16
3264	1
C          0.96530        0.07920        0.12380
C          2.47060        0.13590        0.19650
C          3.05740        1.00310        1.04480
C          3.26310       -0.81350       -0.70330
O          2.90830       -0.61340       -2.04830
C          4.79560       -0.77980       -0.56370
F          5.30370        0.45020       -0.94590
H          0.48020        0.79960        0.81710
H          0.62070       -0.94220        0.38880
H          0.63120        0.31600       -0.90780
H          2.45620        1.65790        1.66840
H          4.13260        1.08020        1.14000
H          2.94740       -1.84200       -0.42420
H          3.12300        0.32900       -2.27730
H          5.24120       -1.55940       -1.21750
H          5.09510       -0.99980        0.48300
