17
3285	1
C          3.24360       -0.45400       -1.75290
C          2.94110        0.21390       -0.43380
C          2.27290        1.37900       -0.40860
C          3.38120       -0.44060        0.86240
F          2.79490       -1.69120        0.95220
C          4.90600       -0.59180        0.96330
N          5.56710        0.71110        0.95980
H          2.84780        0.12540       -2.61440
H          2.78090       -1.46260       -1.77270
H          4.33940       -0.55520       -1.88940
H          1.94860        1.85580       -1.32870
H          2.04400        1.87040        0.53200
H          3.04280        0.15490        1.73910
H          5.29800       -1.22250        0.13590
H          5.14230       -1.10700        1.91990
H          5.42800        1.17240        0.03220
H          6.59430        0.56000        1.08210
