16
3336	1
C          2.58910       -1.14870       -1.89730
O          2.49970       -2.55330       -1.98290
N          3.42390       -3.07640       -1.14810
C          3.08240       -3.24850        0.25780
C          4.63010       -3.49000       -1.64890
C          4.93800       -3.34970       -3.11380
O          5.47220       -3.98740       -0.91430
H          2.05960       -0.71080       -2.76810
H          3.64080       -0.78760       -1.94920
H          2.08890       -0.78080       -0.97670
H          2.86010       -2.26370        0.71740
H          3.89700       -3.71850        0.84740
H          2.18280       -3.89340        0.34010
H          4.90310       -2.28170       -3.41180
H          4.19460       -3.92080       -3.70840
H          5.95160       -3.74380       -3.34120
