19
3319	1
C          3.40580        1.38440       -0.79020
C          3.14270        0.08010       -0.03330
N          3.52590        0.19660        1.37360
C          2.48340        0.18400        2.39130
C          4.91070        0.31060        1.77960
C          5.26620        0.56730        3.22110
N          5.87740        0.17370        0.93610
H          3.08560        1.26970       -1.84730
H          4.47510        1.67120       -0.78140
H          2.81970        2.20810       -0.32990
H          3.66530       -0.77890       -0.50460
H          2.05480       -0.12310       -0.13500
H          1.46690        0.09090        1.95500
H          2.50830        1.13000        2.97160
H          2.63450       -0.67640        3.07650
H          4.87890       -0.25140        3.86200
H          4.83170        1.53410        3.54970
H          6.36820        0.61870        3.35580
H          5.73850       -0.02820       -0.06150
