12
3301	1
O          1.07120       -0.03160        0.20010
C          2.46770        0.04070        0.12700
C          2.99650       -1.14540       -0.68060
F          2.44650       -1.11420       -1.95170
C          4.49730       -1.10790       -0.77410
O          5.09850       -1.02640       -1.98060
O          5.17420       -1.16070        0.24240
H          0.78170        0.75940        0.72500
H          2.89480        0.00590        1.15470
H          2.76850        0.98750       -0.37630
H          2.69240       -2.09390       -0.18730
H          6.06280       -1.00470       -2.05870
