20
3307	1
C          1.59960       -0.21860        0.04440
N          2.84160       -0.66170        0.68570
C          3.61550        0.44600        1.27970
C          2.87520        1.09610        2.46100
C          4.96560       -0.08410        1.74700
C          5.03110       -1.18250        2.78270
C          6.10160        0.41460        1.23050
H          1.13000       -1.07960       -0.47700
H          1.79900        0.57830       -0.70500
H          0.86890        0.13750        0.79810
H          3.42680       -1.10070       -0.06460
H          3.77680        1.23720        0.51060
H          2.62990        0.34720        3.24240
H          1.93340        1.57740        2.12940
H          3.50670        1.89360        2.90780
H          4.56340       -0.84690        3.73020
H          6.07750       -1.47870        3.01080
H          4.49340       -2.07910        2.41040
H          6.07730        1.20040        0.48190
H          7.07020        0.04280        1.55090
