15
3366	1
N          3.22760       -1.67270        0.11790
C          2.91970       -0.35340       -0.31150
N          2.24520       -0.16450       -1.39000
C          3.37710        0.83240        0.49840
O          2.82220        0.76260        1.78730
C          4.88890        0.85910        0.54330
C          5.59280        0.80090        1.68150
H          2.91730       -2.48890       -0.42930
H          3.76390       -1.82600        0.98410
H          1.91820       -0.95700       -1.96190
H          3.05770        1.78330        0.01080
H          1.87260        1.04200        1.70690
H          5.42880        0.93000       -0.39690
H          5.10800        0.72930        2.64920
H          6.67710        0.82480        1.64480
