16
3341	1
C          0.96390        0.11440        0.11350
C          2.48170       -0.07270        0.05700
C          2.96310       -0.66160        1.28450
N          3.34670       -1.13090        2.26290
C          2.87480       -0.86320       -1.19120
C          3.11370       -0.03310       -2.42660
C          3.01750       -2.20090       -1.23620
H          0.67750        0.72690        0.97650
H          0.44180       -0.84560        0.20550
H          0.58990        0.61540       -0.78610
H          2.93770        0.92360       -0.02120
H          3.92980        0.67630       -2.25500
H          2.21230        0.52900       -2.69030
H          3.38520       -0.64750       -3.29170
H          2.85250       -2.83520       -0.36890
H          3.30490       -2.71210       -2.15140
