14
3293	1
N          1.64540        0.46720        0.88290
C          2.70910       -0.31340        0.34980
N          3.17720       -1.30290        1.02570
C          3.28630       -0.00480       -1.01610
F          2.60110        1.04330       -1.60720
C          4.77050        0.37250       -0.94500
O          5.54270       -0.69660       -0.46350
H          1.25220        0.24860        1.81010
H          1.25410        1.26110        0.35720
H          2.80190       -1.54240        1.95520
H          3.16600       -0.89800       -1.66650
H          4.90590        1.28750       -0.32110
H          5.13310        0.62470       -1.96410
H          5.76170       -0.49790        0.48410
