16
3326	1
C          2.83920       -0.31550       -1.68960
C          2.21900       -0.08160       -0.31030
N          2.83400       -0.92190        0.70900
N          2.04710       -1.90410        1.30960
C          4.14470       -0.73480        1.08720
N          4.72540       -1.51630        2.03470
O          4.80720        0.15710        0.57510
H          2.32220        0.32010       -2.43890
H          2.71880       -1.38030       -1.98170
H          3.91690       -0.05800       -1.70800
H          1.13720       -0.32810       -0.39260
H          2.30010        0.98850       -0.01970
H          1.98510       -1.71460        2.33630
H          2.47140       -2.84250        1.12760
H          4.21750       -2.27840        2.50270
H          5.70720       -1.35290        2.30340
