13
3372	1
O          1.01000        0.22100       -0.08020
C          2.39590        0.02330        0.08250
C          2.77270       -0.32200        1.51070
C          1.88220       -0.45570        2.50280
C          2.92340       -1.02490       -0.87030
O          4.24690       -1.29200       -0.90180
O          2.16520       -1.62220       -1.62120
H          0.55620       -0.65250        0.05450
H          2.90020        0.97950       -0.17100
H          3.82510       -0.46110        1.74240
H          0.81850       -0.32270        2.34120
H          2.22570       -0.70090        3.50260
H          4.60960       -1.95510       -1.50620
