17
3335	1
C          2.59740        0.78190       -0.09550
O          2.77140       -0.61560       -0.07250
N          3.20410       -0.94190        1.16350
C          2.22870       -1.22290        2.20070
C          4.61210       -1.06970        1.42320
C          5.11450       -1.43610        2.79370
N          5.47080       -0.87330        0.48350
H          2.29190        1.08060       -1.11910
H          3.54820        1.31290        0.13170
H          1.78710        1.09560        0.59840
H          1.19780       -1.09950        1.80600
H          2.36470       -0.52180        3.05060
H          2.34000       -2.26890        2.55540
H          4.71660       -2.42850        3.09030
H          4.79050       -0.67180        3.53010
H          6.22460       -1.48750        2.80870
H          5.18730       -0.62320       -0.47440
