14
3399	1
C          1.07230       -0.14620       -0.03710
N          2.52890       -0.16000       -0.16650
C          3.17440       -1.29860       -0.58110
O          2.55100       -2.31530       -0.84830
C          3.22920        0.98700        0.13530
C          4.73260        1.06710        0.03150
O          2.62720        1.98760        0.50260
H          0.59830       -1.11430       -0.30180
H          0.64260        0.62860       -0.70780
H          0.79030        0.08590        1.01240
H          4.25280       -1.32750       -0.68280
H          5.20170        0.32830        0.71470
H          5.09050        2.07880        0.31990
H          5.05330        0.87360       -1.01370
