13
3429	1
N          3.30830       -0.53100        1.56360
C          2.76160       -0.33660        0.25960
N          1.57190       -0.76050        0.01140
N          3.49520        0.31830       -0.78830
O          2.90450        0.45770       -1.98780
C          4.82980        0.81050       -0.61200
N          5.45720        1.38270       -1.57860
H          2.74940       -1.00590        2.28760
H          4.24740       -0.21440        1.82530
H          1.00850       -1.23560        0.73200
H          2.42900        1.32720       -1.94200
H          5.34500        0.71550        0.33050
H          5.03260        1.51000       -2.50820
