12
3456	1
C          1.44400        0.54590       -0.14410
C          2.05420       -0.80480        0.12400
O          1.81630       -1.40960        1.17300
C          3.01150       -1.34260       -0.92420
F          2.78960       -0.76930       -2.14490
C          4.40930       -1.08050       -0.55810
C          5.55410       -0.86790       -0.26180
H          0.79810        0.82970        0.69160
H          0.84030        0.50210       -1.05400
H          2.23400        1.29340       -0.24890
H          2.82620       -2.41470       -1.03930
H          6.56950       -0.68010        0.00230
