11
3386	2
N          1.51990       -0.81250       -0.17520
C          2.70290       -0.17790       -0.36280
O          3.25830       -0.25080       -1.44940
C          3.34670        0.62540        0.74350
F          2.55610        0.63640        1.88250
C          4.70160        0.06390        1.06790
O          4.95800       -0.33270        2.19380
H          1.09540       -1.35360       -0.94320
H          1.02660       -0.76880        0.72760
H          3.46830        1.67420        0.39940
H          5.46370        0.01250        0.29660
