13
3426	1
C          3.27080       -0.85210        1.22640
C          2.58560       -0.01300        0.17940
O          1.37400       -0.11710        0.05110
N          3.27420        0.85410       -0.62450
O          2.59580        1.56710       -1.54080
C          4.69550        1.01370       -0.52450
N          5.32850        1.82700       -1.29410
H          2.53240       -1.48370        1.76530
H          3.77380       -0.19700        1.96840
H          4.01630       -1.52170        0.74840
H          2.34670        2.41040       -1.08110
H          5.26720        0.45020        0.20360
H          4.84600        2.39190       -2.00740
