15
3420	1
C          0.85330       -0.18600       -0.10250
C          2.35210       -0.10640        0.08170
C          3.03820       -1.23760        0.32870
N          3.04200        1.15400       -0.00390
O          4.37510        1.19240        0.16860
C          2.33560        2.37470       -0.25400
N          2.95480        3.50030       -0.31940
H          0.47120       -1.22530       -0.00830
H          0.58080        0.18480       -1.11270
H          0.34820        0.43140        0.66940
H          2.53040       -2.19510        0.39580
H          4.11400       -1.22580        0.46760
H          4.75610        1.07630       -0.74000
H          1.26130        2.37280       -0.39300
H          3.97480        3.57110       -0.19580
