12
3427	1
C          1.28340        0.76520       -0.20350
C          2.49530       -0.08710        0.04720
O          3.60570        0.41780       -0.05610
N          2.35570       -1.40590        0.38460
O          1.12370       -1.93600        0.48660
C          3.44080       -2.19960        0.61060
O          3.29230       -3.37560        0.90560
H          1.57970        1.80340       -0.46560
H          0.65160        0.79670        0.70880
H          0.69460        0.34130       -1.04380
H          0.86320       -1.81070        1.43600
H          4.44950       -1.80390        0.53280
