17
3468	1
C          0.91400       -0.16090       -0.08890
C          2.42460        0.01910        0.14730
N          3.13440        0.00860       -1.13330
C          2.82670        1.26720        0.93420
C          1.93460        2.20700        1.31380
C          4.29080        1.41960        1.29140
F          4.55420        2.57020        2.01550
H          0.72530       -1.11680       -0.62180
H          0.50630        0.66620       -0.70740
H          0.37620       -0.20270        0.88220
H          2.75850       -0.85860        0.74310
H          2.80740        0.80630       -1.72730
H          2.94740       -0.88800       -1.63930
H          0.88160        2.13040        1.07530
H          2.24620        3.08310        1.87290
H          4.90070        1.44460        0.36540
H          4.60880        0.54750        1.89930
