13
3451	1
N          1.83620       -1.14590        0.62250
C          2.26410        0.03370       -0.03580
N          1.93460        1.18440        0.43750
C          3.06400       -0.06050       -1.32070
O          2.72690        0.94640       -2.24510
C          4.50980       -0.05530       -1.06030
C          5.69590       -0.03770       -0.84170
H          1.23580       -1.08240        1.45760
H          2.10690       -2.07360        0.26710
H          1.36610        1.26550        1.29280
H          2.81890       -1.03270       -1.80210
H          2.65390        1.81440       -1.76660
H          6.74330       -0.00710       -0.69020
