13
3442	1
C          0.97300        0.03500       -0.18070
C          2.49690        0.00650       -0.09710
C          2.97820        1.05680        0.76910
C          3.37490        1.92250        1.48300
C          2.95340       -1.37030        0.35740
O          2.75190       -2.31780       -0.58670
O          3.45500       -1.68540        1.42430
H          0.61420        1.01040       -0.52830
H          0.51560       -0.16090        0.79650
H          0.59980       -0.72580       -0.87500
H          2.91530        0.16610       -1.09900
H          3.73320        2.69120        2.12870
H          3.09160       -3.13670       -0.16700
