13
3389	1
F          1.15000        0.11280       -0.16980
C          2.53520        0.01880       -0.17080
C          2.98980       -1.41110       -0.33390
C          2.13620       -2.42790       -0.50380
C          3.14780        0.86750       -1.25960
F          4.50290        0.92710       -1.36030
C          2.40420        1.56600       -2.12680
H          2.89910        0.39180        0.80940
H          4.05510       -1.62320       -0.31090
H          1.06320       -2.27000       -0.53400
H          2.51720       -3.43780       -0.61560
H          1.32000        1.55180       -2.08710
H          2.88720        2.16410       -2.89280
