11
3460	1
F          0.87770        0.22080       -0.37640
C          2.21680        0.06370       -0.06630
C          2.74980       -1.04120       -0.87230
C          3.16420       -1.93300       -1.56080
C          3.01530        1.31230       -0.34020
F          4.33130        1.34180        0.00200
C          2.47140        2.39290       -0.91620
H          2.29700       -0.18800        1.01180
H          3.52960       -2.72320       -2.16760
H          1.42960        2.41030       -1.21840
H          3.08130        3.27220       -1.10180
