14
3455	1
C          1.06010       -0.22690       -0.22110
C          2.51410        0.07530        0.03810
C          3.06880        1.17860       -0.50060
C          3.28630       -0.90270        0.91020
F          3.21840       -2.16080        0.34320
C          4.70850       -0.58370        1.12290
C          5.87330       -0.34710        1.31350
H          0.57430        0.53850       -0.86340
H          0.51410       -0.27120        0.74390
H          0.97190       -1.20990       -0.72930
H          2.47820        1.85010       -1.11770
H          4.10930        1.43560       -0.33800
H          2.79670       -0.93910        1.90650
H          6.89850       -0.13900        1.48140
