20
3462	1
C          0.91400        0.17550        0.07640
C          2.43710       -0.00180        0.06360
C          3.01920        0.22960        1.46320
C          2.83040       -1.37450       -0.47920
C          3.57850       -1.44060       -1.60040
C          2.37810       -2.63610        0.25550
N          2.81440       -3.87430       -0.38820
H          0.65290        1.19980        0.41840
H          0.42660       -0.54960        0.76100
H          0.50640        0.03730       -0.94780
H          2.85060        0.79520       -0.59500
H          2.61040       -0.49560        2.19740
H          2.77000        1.25370        1.81460
H          4.12560        0.13240        1.43520
H          3.89480       -0.53620       -2.11100
H          3.89320       -2.38500       -2.02830
H          1.26960       -2.64870        0.32690
H          2.79260       -2.61530        1.28480
H          2.31330       -3.97700       -1.30100
H          2.52390       -4.67930        0.21280
