14
3567	1
C          0.94070       -0.05240        0.25820
N          2.36270        0.06940       -0.01890
N          3.28160       -0.17690        0.99890
C          2.79670        0.42220       -1.26790
O          1.98340        0.63840       -2.15730
N          4.12520        0.53630       -1.53990
O          4.53740        0.88620       -2.76830
H          0.76800       -0.34560        1.31580
H          0.49220       -0.82930       -0.39720
H          0.43470        0.92010        0.07800
H          3.14540       -1.15700        1.33700
H          3.09230        0.48910        1.78260
H          4.83220        0.36360       -0.81080
H          4.68850        0.02790       -3.24180
