15
3540	1
C          2.74150        1.18830       -0.79060
N          2.27500       -0.16450       -0.56530
O          0.97140       -0.43760       -0.73880
C          3.18060       -1.20840       -0.17630
N          2.74720       -2.40780        0.01000
C          4.65280       -0.91730        0.02180
O          5.35850       -2.06310        0.42070
H          1.89480        1.84320       -1.08760
H          3.49440        1.20120       -1.60630
H          3.18860        1.59700        0.13970
H          0.55290       -0.26470        0.14360
H          1.75540       -2.65710       -0.11170
H          4.77030       -0.14830        0.81320
H          5.09560       -0.50480       -0.91260
H          5.52950       -2.59360       -0.40110
