16
3549	1
C          1.41070        0.21320        0.83310
C          2.74260       -0.16430        0.18320
C          3.46850        1.02120       -0.42880
O          2.96550        2.13510       -0.36370
N          4.67540        0.86930       -1.05200
C          5.31840       -0.42590       -1.16560
O          5.28320        1.94300       -1.58410
H          0.93400       -0.69470        1.25910
H          0.72390        0.65320        0.07870
H          1.57470        0.94500        1.65280
H          2.54070       -0.91570       -0.60960
H          3.38930       -0.62450        0.96020
H          4.67160       -1.12740       -1.73340
H          5.52860       -0.83970       -0.15690
H          6.28310       -0.32930       -1.70790
H          5.87920        2.28410       -0.86800
