14
3516	2
C          1.03940        0.45570        0.42010
C          2.38820       -0.10340       -0.03590
F          2.86160       -0.97320        0.93050
C          2.31350       -0.82920       -1.35990
O          1.24800       -0.92200       -1.95550
N          3.43910       -1.38040       -1.88930
N          3.41340       -2.05530       -3.10670
H          1.16220        0.98280        1.38980
H          0.30590       -0.36820        0.55480
H          0.64680        1.17780       -0.32740
H          3.10400        0.74060       -0.13690
H          4.33270       -1.30140       -1.38330
H          3.08710       -1.39490       -3.84880
H          2.74600       -2.85700       -3.03140
