17
3578	1
C          0.88130       -0.33400        0.14560
C          2.34730       -0.02070       -0.20640
C          3.11290       -1.34680       -0.34690
C          2.53660        0.84740       -1.46100
C          1.51260        1.19150       -2.26760
C          3.89150        1.35420       -1.80660
O          4.84910        1.13230       -1.08300
H          0.83090       -0.91380        1.09220
H          0.39630       -0.93580       -0.65290
H          0.31280        0.60820        0.29860
H          2.76330        0.54570        0.65560
H          2.71110       -1.93640       -1.19900
H          3.01240       -1.94910        0.58140
H          4.19550       -1.18140       -0.51480
H          0.49510        0.87040       -2.08620
H          1.68510        1.81270       -3.14200
H          4.03710        1.95390       -2.70030
