12
3505	2
N          1.08590       -0.06860       -0.07250
N          2.44080        0.19180        0.08790
C          3.09620       -0.04770        1.33100
N          2.45450       -0.52950        2.33900
C          4.55540        0.26960        1.47140
F          5.28320       -0.48270        0.56830
F          4.76340        1.61300        1.21990
H          0.98210       -0.75110       -0.85730
H          0.61910        0.82740       -0.34100
H          2.97980        0.57560       -0.70380
H          1.45260       -0.76220        2.29010
H          4.91160        0.03950        2.49840
