18
3535	1
C          2.28770        1.29750        0.38860
C          3.06770        0.19980       -0.33200
C          3.62700       -0.82030        0.64950
N          2.80980       -1.53320        1.34590
N          5.04320       -1.01990        0.81270
C          6.01170       -0.23630        0.07440
N          5.51110       -1.98040        1.70700
H          1.88940        2.01900       -0.35620
H          2.95720        1.84240        1.08790
H          1.43260        0.87660        0.95700
H          3.86110        0.69640       -0.92180
H          2.40100       -0.32170       -1.05190
H          1.78830       -1.43290        1.25510
H          5.88850        0.84150        0.31300
H          5.88800       -0.40420       -1.01610
H          7.04570       -0.53450        0.35140
H          5.14430       -2.91490        1.41420
H          5.15790       -1.74700        2.66310
