17
3546	1
C          1.85160       -0.32420        0.72430
C          3.31400       -0.56520        0.34760
C          3.83960        0.42220       -0.68040
O          3.09530        1.29460       -1.10930
N          5.13170        0.35350       -1.13610
C          6.04820       -0.66330       -0.65630
N          5.59160        1.27070       -2.08010
H          1.53180       -1.07690        1.47550
H          1.20150       -0.41980       -0.17160
H          1.72740        0.68900        1.16290
H          3.40080       -1.59490       -0.05970
H          3.92660       -0.48940        1.27110
H          5.65910       -1.67510       -0.89650
H          6.19060       -0.56510        0.44060
H          7.04080       -0.55240       -1.14310
H          5.50510        2.23470       -1.68310
H          5.00490        1.18950       -2.94230
