13
3489	1
C          1.02790        0.01030        0.07650
C          2.55010       -0.12300        0.00910
F          3.00900       -0.63120        1.21170
C          3.01640       -1.01690       -1.11740
O          2.20960       -1.56020       -1.85870
C          4.48380       -1.24270       -1.33170
F          5.11070       -0.03770       -1.58940
H          0.74850        0.68200        0.91550
H          0.55900       -0.98270        0.24550
H          0.63640        0.44450       -0.86830
H          2.98340        0.88940       -0.13810
H          4.65260       -1.92570       -2.19160
H          4.92870       -1.70080       -0.42380
