10
3589	1
F          2.80100       -1.28230        0.70120
C          2.32260       -0.12710        0.10910
F          2.82990        0.96640        0.78780
C          2.77090       -0.07760       -1.32690
C          1.89200       -0.02970       -2.34010
C          4.18490       -0.08210       -1.60850
N          5.32150       -0.08630       -1.82280
H          1.21610       -0.11650        0.19980
H          0.82130       -0.02510       -2.15880
H          2.23820        0.00560       -3.37090
