12
3597	1
C          1.35650        0.44350       -0.61820
C          2.52590       -0.33430       -0.01520
F          3.69240        0.37250       -0.26070
C          2.35450       -0.54160        1.47290
O          3.16180       -0.04910        2.24630
C          1.24520       -1.35090        2.02050
O          0.44540       -1.90220        1.28160
H          1.52640        0.58380       -1.70660
H          1.27390        1.44300       -0.13990
H          0.39820       -0.09910       -0.48770
H          2.61100       -1.32470       -0.51160
H          1.14950       -1.47370        3.09470
