14
3644	2
N          0.86470        0.20610        0.18260
C          2.21360        0.13810        0.03450
O          2.83110       -0.69870        0.67740
C          2.97980        1.04760       -0.88590
C          2.37420        1.99910       -1.63080
C          4.48940        0.86160       -0.95370
O          5.12390        1.76330       -1.82300
H          0.38900       -0.44230        0.82780
H          0.28410        0.88280       -0.32480
H          1.30810        2.16620       -1.61380
H          2.94390        2.64670       -2.28770
H          4.72750       -0.18490       -1.25370
H          4.91550        1.00940        0.06100
H          5.05730        1.37610       -2.73510
