11
3671	1
F          2.79940       -1.08040        0.44990
C          2.17670        0.02970       -0.09040
C          2.91520        1.27210        0.31000
O          2.33660        2.13370        0.95650
C          4.33560        1.45120       -0.08170
F          4.95490        0.48040       -0.80560
C          5.02640        2.54610        0.25810
H          1.12760        0.06410        0.27380
H          2.16490       -0.05720       -1.19710
H          4.57010        3.34470        0.83500
H          6.06390        2.64730       -0.04400
