15
3675	2
C          1.14390       -0.31810        0.40750
N          2.48130        0.04290        0.82020
C          2.91170        1.26010        0.92460
N          2.06920        2.37470        0.63000
C          4.31200        1.49410        1.36040
C          5.22040        0.34110        1.67700
O          4.73570        2.63540        1.46450
H          1.05210       -1.42350        0.40710
H          0.94520        0.05150       -0.62120
H          0.39660        0.09630        1.11750
H          1.09400        2.25190        0.32540
H          2.42890        3.33580        0.71870
H          4.79010       -0.25820        2.50660
H          6.22440        0.70440        1.98430
H          5.33490       -0.30310        0.78000
