14
3628	1
C          1.00900       -0.00760       -0.02100
N          2.46470       -0.04200       -0.08160
C          3.22640        0.56280        0.98680
C          3.11620       -0.63720       -1.13310
O          4.34120       -0.66400       -1.18050
C          2.36800       -1.24240       -2.20260
C          1.74520       -1.74910       -3.09780
H          0.64280        0.50890        0.89170
H          0.60580       -1.03790       -0.01210
H          0.60600        0.53050       -0.89970
H          2.57100        1.00330        1.76530
H          3.86290        1.36110        0.56880
H          3.86320       -0.20630        1.45580
H          1.20050       -2.19490       -3.88550
