18
3632	1
C          3.18990       -0.46330        1.32780
C          2.48170       -0.06810        0.04940
C          1.20810       -0.48480       -0.12100
C          3.21970        0.75620       -0.98900
C          2.62950        1.18880       -2.12490
C          4.68430        1.10560       -0.77500
N          4.85450        1.94440        0.40560
H          2.55180       -1.08570        1.99200
H          3.46830        0.44140        1.90370
H          4.10060       -1.05060        1.09130
H          0.71600       -1.07910        0.64330
H          0.62560       -0.26350       -1.00220
H          1.59640        0.99190       -2.36700
H          3.18890        1.77320       -2.84930
H          5.11190        1.64340       -1.65160
H          5.26570        0.16650       -0.65760
H          4.37100        2.85760        0.24830
H          5.87370        2.13700        0.53250
