11
3615	1
C          0.73820       -0.05680        0.02230
N          2.17370        0.05030        0.19410
O          2.72180        1.22310       -0.17500
C          2.96930       -1.06690        0.35980
O          4.18610       -0.98240        0.24280
C          2.40650       -2.36960        0.60140
N          1.94970       -3.41370        0.79530
H          0.25140        0.92510        0.23260
H          0.24990       -0.83530        0.63580
H          0.57440       -0.27850       -1.05160
H          3.68280        1.08350       -0.34020
