15
3646	1
C          3.57770       -1.21090       -1.06920
C          3.19630       -0.04470       -0.15800
C          3.15840        1.27330       -0.90960
C          1.99440        1.93550       -1.03050
C          4.40400        1.84320       -1.49700
O          4.36430        3.00620       -2.18430
O          5.47260        1.27010       -1.34550
H          3.57900       -2.15330       -0.48190
H          4.58840       -1.07510       -1.50400
H          2.83900       -1.30780       -1.89330
H          3.92070        0.03310        0.68090
H          2.20030       -0.27960        0.27830
H          1.07910        1.53670       -0.60360
H          1.93820        2.88310       -1.55690
H          5.16640        3.39080       -2.56540
