11
3665	2
N          2.15740       -0.47910       -1.07590
C          3.39170       -0.33930       -0.53460
O          4.29550        0.13110       -1.20980
C          3.65840       -0.75010        0.86690
O          2.75910       -1.22120        1.54770
C          5.03210       -0.58980        1.45600
F          5.06050       -1.03260        2.76720
H          1.98210       -0.19090       -2.05010
H          1.37890       -0.87280       -0.52780
H          5.32420        0.48100        1.43270
H          5.76240       -1.17900        0.86270
