17
3602	1
C          0.94910       -0.31010        0.10880
N          2.40410       -0.24980        0.07470
C          3.16530       -0.96720        1.08720
C          3.08750        0.51110       -0.94920
N          2.42230        1.15180       -1.85270
C          4.58160        0.57330       -0.98490
C          5.24790        1.26720       -1.91720
H          0.57270       -0.93020        0.94930
H          0.56730       -0.75890       -0.83270
H          0.53150        0.71120        0.23590
H          2.51030       -1.50470        1.80470
H          3.78330       -0.25300        1.67140
H          3.81920       -1.72300        0.60290
H          1.39520        1.16210       -1.90120
H          5.16560        0.04590       -0.23990
H          4.72870        1.81930       -2.69410
H          6.33300        1.28390       -1.90390
