14
3652	1
O          0.96400        0.12220       -0.02100
C          2.36180        0.10590        0.09450
C          2.86470       -1.05370        0.93620
C          1.99760       -1.93560        1.48340
C          4.35000       -1.16140        1.12150
F          5.13880       -0.22360        0.52970
C          4.95670       -2.12390        1.83410
H          0.74230        0.90910       -0.58380
H          2.69960        1.05250        0.57210
H          2.81070        0.01750       -0.91990
H          0.92760       -1.83890        1.33670
H          2.32080       -2.77110        2.08700
H          4.41930       -2.91250        2.34100
H          6.03910       -2.12420        1.91490
