15
3643	2
N          1.70940        0.73350        0.05480
C          3.01070        0.08420       -0.09740
C          2.94630       -1.28870       -0.76090
C          1.76580       -1.81100       -1.16530
C          4.24890       -2.01890       -0.94680
N          4.33670       -3.22590       -1.56460
O          5.27420       -1.50120       -0.52730
H          1.86260        1.69410        0.43790
H          1.14740        0.20640        0.76240
H          3.48160       -0.01810        0.90630
H          3.65980        0.73600       -0.72110
H          0.83320       -1.27610       -1.03300
H          1.68480       -2.77900       -1.63590
H          3.52050       -3.71400       -1.94860
H          5.25620       -3.68050       -1.66700
