15
3591	1
C          0.99530       -0.12380        0.27080
C          2.52440       -0.20260        0.33170
C          3.04910        0.44820        1.61600
C          2.97890       -1.64690        0.25210
O          2.63240       -2.43770        1.11740
C          3.83580       -2.12780       -0.85180
O          4.20470       -1.37180       -1.73650
H          0.66460        0.93630        0.30450
H          0.53540       -0.66670        1.12470
H          0.62900       -0.57220       -0.67760
H          2.92770        0.37370       -0.52910
H          2.65790       -0.07550        2.51490
H          2.73610        1.51330        1.66130
H          4.15940        0.41120        1.63470
H          4.14320       -3.16840       -0.87860
