11
3599	1
F          2.85620        0.52730        0.80280
C          2.00050       -0.00990       -0.14270
F          1.25030        1.01020       -0.69790
C          2.74980       -0.73020       -1.23070
O          2.11570       -1.26190       -2.13070
C          4.23420       -0.80340       -1.22250
C          4.91780       -1.44000       -2.18050
H          1.31850       -0.72420        0.36450
H          4.78980       -0.32930       -0.41960
H          4.40990       -1.93030       -3.00540
H          6.00180       -1.47180       -2.14020
