15
3593	1
C          0.86180       -0.02660        0.32710
C          2.34040        0.22620        0.01420
O          3.16500       -0.60270        0.79450
C          2.63330        0.03030       -1.45600
O          2.45810       -1.06800       -1.96580
C          3.13070        1.16340       -2.27470
C          3.40200        1.03320       -3.57830
H          0.67080        0.14800        1.40720
H          0.57870       -1.07230        0.08000
H          0.22350        0.66640       -0.26180
H          2.56010        1.27850        0.29700
H          2.92210       -1.54620        0.60020
H          3.28040        2.13110       -1.80510
H          3.26750        0.08540       -4.09040
H          3.76420        1.88660       -4.14240
