16
3650	1
C          3.15710        0.80670       -0.95680
C          3.03740        0.01770        0.34850
C          3.17960       -1.47900        0.11980
C          2.11110       -2.27190        0.31430
C          4.47570       -2.10010       -0.30530
F          4.51020       -3.42920       -0.59840
C          5.62090       -1.40970       -0.38890
H          3.03200        1.88970       -0.74610
H          2.36030        0.49050       -1.66340
H          4.13880        0.66170       -1.44800
H          2.03660        0.25720        0.77150
H          3.79270        0.35790        1.08810
H          1.15660       -1.85790        0.62510
H          2.17320       -3.34550        0.16600
H          5.67960       -0.35590       -0.14800
H          6.53160       -1.91510       -0.69390
