15
3719	1
C          1.02370       -0.03270        0.44710
C          2.45610        0.14200       -0.00730
C          2.93430        1.40090       -0.11380
C          3.29120       -1.08450       -0.32230
C          4.57720       -0.99750       -0.73290
C          2.68210       -2.44190       -0.17740
O          3.32550       -3.45140       -0.42250
H          0.51650        0.93590        0.64680
H          0.99810       -0.62330        1.38680
H          0.44260       -0.55830       -0.33940
H          2.30210        2.25190        0.12180
H          3.94100        1.62800       -0.42920
H          5.09400       -0.05930       -0.86380
H          5.15250       -1.89180       -0.95170
H          1.65590       -2.55550        0.14860
