10
3752	1
F          1.03990       -0.22520       -0.73390
C          2.20300       -0.14010       -0.03390
C          2.44630       -1.05010        0.91750
C          3.17310        0.94970       -0.33400
O          4.21850        1.02690        0.29470
C          2.90310        1.95370       -1.38480
O          1.87420        1.92020       -2.04050
H          1.72190       -1.83380        1.11540
H          3.36000       -1.02480        1.50340
H          3.63110        2.73520       -1.57840
