13
3695	2
N          1.38600        0.44040        0.75160
N          2.68000        0.51710        0.24300
C          3.32380       -0.59710       -0.21310
O          2.74650       -1.67550       -0.17790
C          4.72210       -0.54240       -0.76360
N          5.47610        0.66410       -0.78480
N          5.26930       -1.61220       -1.22910
H          1.38770       -0.20200        1.57680
H          0.75480        0.05990        0.00960
H          3.13060        1.43800        0.21710
H          5.11580        1.54870       -0.41000
H          6.43130        0.66020       -1.17210
H          4.78100       -2.51960       -1.24440
