11
3743	1
N          1.10840        0.55650        0.31420
C          2.23270       -0.12220       -0.23200
N          2.54660        0.04940       -1.46780
C          3.04520       -1.02830        0.62020
O          2.74250       -1.18760        1.79340
C          4.21780       -1.74320        0.07120
O          4.87660       -2.48480        0.78300
H          0.54160        1.18610       -0.27260
H          0.84520        0.42880        1.30180
H          1.99820        0.67280       -2.07840
H          4.50280       -1.61510       -0.96780
