14
3733	1
F          0.83460       -0.22080        0.27300
C          2.19030       -0.11830        0.19060
C          2.73890        1.05330        0.54640
C          2.98000       -1.30710       -0.28730
C          2.29220       -2.42320       -0.61210
C          4.48350       -1.25310       -0.39910
C          5.25920       -2.26700       -0.81570
H          2.09560        1.86120        0.88040
H          3.80020        1.24550        0.52040
H          1.21040       -2.45540       -0.52950
H          2.76890       -3.32580       -0.96430
H          5.00270       -0.34510       -0.13110
H          4.86960       -3.22940       -1.11360
H          6.33480       -2.12800       -0.86100
