17
3706	1
C          2.06640        2.02520       -0.38620
O          3.33760        1.71110        0.05350
C          3.65230        0.97860        1.16460
C          2.67850        0.47790        1.96310
C          5.11490        0.76370        1.44570
C          6.11090        1.36950        0.48660
C          5.57760        0.06300        2.50230
H          2.14450        2.62910       -1.31340
H          1.53090        2.62580        0.37970
H          1.49850        1.09890       -0.61750
H          1.63040        0.64350        1.74400
H          2.88780       -0.10430        2.84770
H          5.94400        0.95800       -0.53100
H          7.16350        1.15900        0.77430
H          5.97630        2.47130        0.45840
H          4.93090       -0.40040        3.23210
H          6.64580       -0.05940        2.65480
