12
3700	2
C          2.43860       -0.75950       -0.22160
N          3.47740        0.18430        0.13010
C          3.19770        1.49380        0.38100
O          2.04620        1.90110        0.31250
C          4.27640        2.44210        0.73920
O          3.97720        3.73600        0.98400
O          5.43550        2.06140        0.81470
H          2.88080       -1.76540       -0.38320
H          1.93420       -0.43820       -1.15780
H          1.69240       -0.82650        0.59850
H          4.44970       -0.15420        0.18910
H          4.66630        4.37340        1.21970
