21
3847	1
C          2.62270        1.19990       -0.75820
C          2.54270       -0.12720        0.00400
C          3.08190       -0.00790        1.42380
C          2.02230       -0.07230        2.51050
C          4.43050        0.13960        1.68030
C          5.46960        0.13100        0.57440
C          5.01450        0.30110        3.07160
H          2.18730        1.06940       -1.77130
H          3.65840        1.57180       -0.87370
H          2.03660        1.97630       -0.22160
H          3.04770       -0.95280       -0.54020
H          1.46220       -0.39030        0.03550
H          1.29800        0.75450        2.35340
H          2.35550       -0.00620        3.55450
H          1.47790       -1.03600        2.42210
H          5.08630       -0.04920       -0.44450
H          6.19900       -0.68220        0.77290
H          6.01340        1.09890        0.57140
H          4.31660        0.32740        3.91880
H          5.58170        1.25480        3.11100
H          5.72160       -0.53260        3.26550
