12
3858	1
C          0.94630       -0.08710       -0.00960
C          2.45020       -0.02840       -0.10940
C          3.22350        0.46510        1.08860
F          2.97230       -0.35360        2.17420
C          3.08540       -0.40340       -1.23910
F          2.38490       -0.84620       -2.31770
F          4.44150       -0.34820       -1.32690
H          0.55120        0.92900        0.19970
H          0.65550       -0.76360        0.82100
H          0.46560       -0.45850       -0.93870
H          2.90020        1.49870        1.33260
H          4.31940        0.48420        0.91320
