16
3812	2
C          0.74080       -0.02130        0.09780
C          2.24650       -0.06730       -0.00340
C          3.00600        0.35370       -1.05770
C          2.40010        0.94830       -2.31770
C          4.51260        0.25430       -1.03860
N          5.21340       -0.25390        0.00990
O          5.13460        0.65020       -2.01440
H          0.36660       -1.05400        0.25600
H          0.19510        0.39240       -0.76270
H          0.46560        0.58890        0.98300
H          2.72080       -0.48270        0.87040
H          1.30450        1.03010       -2.35300
H          2.69940        0.32890       -3.18940
H          2.79870        1.97480       -2.46060
H          4.76970       -0.60680        0.86380
H          6.24250       -0.29430       -0.03900
