16
3853	1
C          0.92830       -0.19360        0.03940
C          2.43090       -0.16730        0.08230
F          3.09650       -0.97470       -0.78880
C          3.12960        0.61900        0.94200
C          2.45450        1.53910        1.93730
C          4.64340        0.59650        0.93560
O          5.14900        1.87430        0.66160
H          0.58680       -0.90730       -0.73920
H          0.53370        0.81290       -0.21410
H          0.52180       -0.52570        1.01800
H          1.34820        1.51350        1.90380
H          2.76970        2.58580        1.74540
H          2.76560        1.25620        2.96460
H          5.07380       -0.13430        0.21490
H          4.99950        0.28420        1.93970
H          5.01800        2.02730       -0.31070
