16
3861	1
C          0.90140        0.07080        0.05120
C          2.40400       -0.08080       -0.00910
C          2.93170       -1.48600        0.19200
C          3.18630        1.01410       -0.23510
F          2.58770        2.22580       -0.40310
C          4.69690        1.01030       -0.31660
O          5.09860        1.46540       -1.58010
H          0.43560       -0.56030       -0.73460
H          0.55230        1.11280       -0.10090
H          0.53660       -0.26700        1.04390
H          2.49760       -2.14760       -0.58670
H          2.60450       -1.85470        1.18670
H          4.02280       -1.61530        0.14520
H          5.18710        0.04100       -0.14480
H          5.09970        1.67660        0.48010
H          5.10370        2.45780       -1.54360
