12
3817	1
C          1.02110        0.07720       -0.11180
C          2.52850        0.07480       -0.02170
C          3.17700        1.01490        0.69220
F          2.49940        1.99220        1.35220
C          3.29170       -0.98380       -0.73480
O          4.64150       -1.01410       -0.67420
O          2.69710       -1.83420       -1.38110
H          0.55590        0.90930        0.45690
H          0.62520       -0.87810        0.29220
H          0.71450        0.17430       -1.17450
H          4.26070        1.01180        0.75600
H          5.14840       -1.69830       -1.13420
