14
3883	1
C          0.91850        0.13150       -0.07080
C          2.42110        0.05680       -0.05580
C          3.12450        1.24400       -0.32510
N          3.69950        2.21600       -0.54720
C          3.08970       -1.09340        0.20420
N          2.44840       -2.25740        0.48590
N          4.44600       -1.17640        0.20910
H          0.56540        1.14270       -0.30190
H          0.50490       -0.14160        0.90560
H          0.50490       -0.53730       -0.83430
H          1.44160       -2.32420        0.47740
H          2.99030       -3.09330        0.65070
H          5.02860       -0.36160        0.04680
H          4.89730       -2.05180        0.43710
