16
3876	1
C          1.02990        0.02670        0.02110
C          2.54220        0.00490        0.00540
C          3.28080        1.07830        0.77980
C          3.23330       -0.95070       -0.68420
C          2.55730       -2.04790       -1.47590
C          4.63930       -0.95070       -0.68420
N          5.79030       -0.95070       -0.68420
H          0.63440        0.86750        0.62780
H          0.64100       -0.91550        0.46170
H          0.64100        0.14790       -1.01200
H          2.58580        1.77980        1.28610
H          3.91910        1.67010        0.09000
H          3.91910        0.61020        1.55890
H          1.45130       -2.01610       -1.45290
H          2.87040       -3.03540       -1.07580
H          2.87040       -1.97950       -2.53920
