13
3826	1
N          0.76460        0.07300        0.13200
C          2.17290        0.13860       -0.03060
C          2.98910        0.23980        1.03930
F          2.43150        0.27760        2.28080
C          4.48460        0.31380        0.94580
N          5.24090        0.41830        2.14200
N          5.11390        0.28630       -0.17970
H          0.15940       -0.00410       -0.69780
H          0.32960        0.10060        1.06570
H          2.56240        0.10450       -1.03800
H          4.77640        0.44330        3.06100
H          6.26940        0.47050        2.10280
H          4.65360        0.21270       -1.09410
