16
3837	1
C          0.96540        0.13510       -0.28760
C          2.44030        0.03230        0.02920
C          2.97630        0.91990        0.89070
C          3.23830       -1.05830       -0.63460
C          4.72400       -1.26460       -0.39620
N          2.62090       -1.85270       -1.44470
O          3.24700       -2.83160       -2.06520
H          0.46920        0.97040        0.25200
H          0.45650       -0.80880        0.00050
H          0.82980        0.30260       -1.37680
H          2.35650        1.68840        1.34290
H          4.01700        0.91880        1.17180
H          5.19300       -0.55630        0.30450
H          5.26500       -1.17390       -1.36160
H          4.89050       -2.28400        0.01140
H          2.76120       -3.41160       -2.66650
