10
3835	1
F          0.73540        0.08520       -0.25820
C          2.08890       -0.02700       -0.30080
C          2.85800        1.03950       -0.05530
F          2.26610        2.23030        0.23590
C          4.33720        0.93840       -0.09680
F          4.93100       -0.25110       -0.38780
C          5.10670        2.00350        0.14860
H          2.52920       -0.99110       -0.53610
H          4.67160        2.96990        0.38450
H          6.18740        1.91110        0.11380
