16
3820	1
C          0.83520       -0.04790        0.05540
C          2.31270        0.22210        0.09920
C          3.14870       -0.47530        0.89550
F          2.64430       -1.46030        1.69110
C          4.61920       -0.20150        0.93450
C          5.23590        0.87800        0.07510
C          5.40710       -0.92650        1.74650
H          0.54740       -0.32730       -0.97930
H          0.28880        0.87390        0.34400
H          0.52550       -0.86650        0.73810
H          2.69060        1.01030       -0.54250
H          4.78930        1.86140        0.33200
H          5.04900        0.65560       -0.99640
H          6.33500        0.95450        0.22050
H          4.99590       -1.70910        2.37650
H          6.47700       -0.74670        1.79240
