15
3862	1
C          0.98620       -0.05620       -0.16320
C          2.49260        0.02790       -0.12720
C          3.15910        0.80410       -1.24150
C          3.19080       -0.57840        0.86920
F          2.52470       -1.27010        1.83450
C          4.69190       -0.53110        0.96810
F          5.12200        0.77340        1.13370
H          0.55910        0.96770       -0.12160
H          0.55910       -0.63890        0.67910
H          0.66660       -0.53970       -1.11010
H          2.79380        1.85230       -1.22680
H          2.88880        0.34670       -2.21620
H          4.26380        0.83060       -1.18380
H          5.15450       -0.97450        0.06130
H          5.02420       -1.12010        1.84850
