16
3931	1
N          1.08230        0.07850        0.40200
C          2.50360        0.06590        0.02950
C          2.69410        0.02550       -1.49320
F          4.03570        0.00370       -1.83340
C          3.29740        1.09640        0.82140
N          3.73260        0.08910        1.79910
C          3.27760       -0.94720        0.86130
H          0.63560        0.94430        0.02120
H          0.94900        0.08220        1.44030
H          2.22530        0.92100       -1.95280
H          2.20650       -0.88360       -1.90410
H          2.71280        1.94320        1.24600
H          4.20160        1.44190        0.27030
H          3.05250        0.11090        2.59640
H          2.67680       -1.76570        1.31790
H          4.17570       -1.33190        0.32620
