7
3899	1
F          0.97940        0.02730       -0.05780
C          2.33800        0.00660       -0.06810
F          2.98290       -1.06580       -0.60320
C          3.02450        1.03350        0.44430
F          2.36080        2.09440        0.97370
C          4.43050        1.03350        0.44430
N          5.58150        1.03350        0.44430
