15
3952	1
O          1.37080        0.03170        1.25420
C          2.17710       -0.09570        0.11460
C          2.92330        1.21590       -0.18210
O          3.76290        1.12340       -1.30530
C          2.13820        2.51280       -0.18220
O          3.01680        3.09990        0.75200
C          3.66850        1.86650        0.96310
H          0.93060       -0.84880        1.37960
H          1.54210       -0.34690       -0.76380
H          2.92950       -0.89930        0.27640
H          3.17190        1.06360       -2.10090
H          1.13210        2.42530        0.28590
H          2.14210        3.04230       -1.16010
H          3.37640        1.48210        1.96620
H          4.76730        1.93160        0.80320
