18
3978	1
C          0.93680        0.01470        0.18500
C          2.46610       -0.05290        0.06620
C          3.25900        0.90030        0.95060
N          4.09570       -0.19300        1.46080
C          3.14300       -1.14780        0.88150
C          2.96550       -0.02990       -1.36790
C          2.74350        1.01770       -2.16940
H          0.61970       -0.01590        1.24940
H          0.48000       -0.84850       -0.34380
H          0.55380        0.95540       -0.26250
H          2.64080        1.31300        1.78360
H          3.84020        1.68450        0.41830
H          4.05100       -0.22620        2.50700
H          2.48050       -1.54110        1.68980
H          3.63030       -1.96230        0.30300
H          3.51710       -0.87840       -1.76300
H          2.19960        1.88700       -1.81370
H          3.11210        1.00700       -3.18990
