16
3975	1
F          1.06180        0.20270       -0.02310
C          2.44250        0.10320        0.02790
C          3.13280        1.07930        0.98780
C          4.05320       -0.07320        1.39960
C          2.97120       -1.03730        0.90500
C          3.06200        0.11020       -1.35410
C          2.88570        1.14440       -2.18090
H          2.44410        1.28610        1.84090
H          3.58500        2.01580        0.59680
H          4.39070       -0.14030        2.45560
H          4.91370       -0.11100        0.69120
H          2.25450       -1.20190        1.74430
H          3.27530       -2.00020        0.44140
H          3.65560       -0.73690       -1.68670
H          2.29540        2.00370       -1.87700
H          3.33480        1.13240       -3.16860
