17
3913	1
N          0.90940        0.05720        0.01630
C          2.37280        0.04920       -0.08730
C          2.81520        0.01890       -1.57020
F          4.18800        0.00040       -1.73640
C          3.07790        1.12240        0.75860
C          4.08580        0.05040        1.18780
C          3.05900       -1.01430        0.78530
H          0.54160        0.93250       -0.42220
H          0.60450        0.05330        1.01680
H          2.41550        0.91370       -2.09260
H          2.39360       -0.88500       -2.05840
H          2.45440        1.35890        1.65230
H          3.45590        2.04440        0.26790
H          4.45540        0.06040        2.23510
H          4.93240        0.03440        0.46940
H          2.43440       -1.21770        1.68620
H          3.42100       -1.95540        0.31920
