20
3907	1
C          0.95540        0.07750        0.07080
C          2.49160        0.08390       -0.02090
C          2.93040        0.06950       -1.51880
N          4.37600        0.06410       -1.72970
C          3.17600        1.15810        0.84090
C          4.17910        0.09230        1.29750
C          3.18580       -0.98210        0.84350
H          0.53910        0.97730       -0.42980
H          0.61600        0.08080        1.12840
H          0.54670       -0.83110       -0.42050
H          2.49370        0.95100       -2.04000
H          2.50660       -0.84450       -1.99060
H          4.76240        1.00080       -1.47420
H          4.55820       -0.06530       -2.75080
H          2.53360        1.38880        1.72210
H          3.55590        2.08680        0.36540
H          4.49820        0.09540        2.36130
H          5.05880        0.08770        0.62340
H          2.54590       -1.22040        1.72440
H          3.58240       -1.90170        0.36290
