19
3908	1
C          0.98260       -0.06270        0.06070
C          2.51830       -0.06330       -0.01050
C          2.98290       -0.07880       -1.49630
O          4.37640       -0.10740       -1.65560
C          3.20570        1.01240        0.84600
C          4.21320       -0.05260        1.29470
C          3.20640       -1.12500        0.86280
H          0.57720        0.83700       -0.44920
H          0.62970       -0.05350        1.11420
H          0.57700       -0.97120       -0.43320
H          2.55450        0.79800       -2.03620
H          2.56910       -0.98010       -1.99680
H          4.68270        0.83600       -1.69730
H          2.56770        1.24270        1.73130
H          3.58230        1.94090        0.36650
H          4.55400       -0.04420        2.35200
H          5.08050       -0.05910        0.60310
H          2.56850       -1.34280        1.75130
H          3.58580       -2.05870        0.39540
