16
3945	1
C          0.79870       -0.04600        0.18530
C          2.32340       -0.04870       -0.01790
C          2.73420       -0.07520       -1.50100
F          4.11130       -0.07690       -1.65080
C          3.03220        0.98160        0.83720
O          3.56180       -0.01710        1.68350
C          3.03360       -1.04640        0.87380
H          0.35410        0.84780       -0.30160
H          0.53060       -0.02670        1.26430
H          0.35540       -0.95750       -0.26900
H          2.32320        0.81740       -2.01850
H          2.32440       -0.98640       -1.98590
H          2.35110        1.66300        1.39350
H          3.87060        1.49970        0.32050
H          2.35340       -1.70820        1.45440
H          3.87270       -1.58170        0.37610
