17
3947	1
N          3.28830        0.47010        1.26290
C          2.46170       -0.07130        0.18550
C          2.94820        0.35360       -1.22160
N          2.15630       -0.25640       -2.29300
C          3.18250        1.81980       -1.52410
O          4.48750        1.55710       -1.99500
C          4.42570        0.22710       -1.52500
H          2.96690        0.04990        2.16480
H          3.13640        1.49970        1.34310
H          1.40510        0.24560        0.32880
H          2.49990       -1.18120        0.24030
H          1.15460        0.02620       -2.18720
H          2.21200       -1.29840       -2.21810
H          3.26280        2.47500       -0.63200
H          2.51760        2.22960       -2.31630
H          5.06630        0.15060       -0.61820
H          4.66630       -0.52220       -2.31110
