14
3953	1
O          0.89750       -0.01210        0.32860
C          2.27990        0.01500        0.07830
C          2.62180       -0.02870       -1.41730
F          3.99120       -0.02500       -1.62150
C          2.98510        1.03930        0.94390
O          3.44240        0.04420        1.83250
C          2.98810       -0.97780        0.97290
H          0.53590        0.86380        0.03200
H          2.18310        0.85580       -1.92500
H          2.19380       -0.94840       -1.86870
H          2.29880        1.76300        1.43580
H          3.86720        1.50600        0.45050
H          2.30230       -1.68920        1.48370
H          3.87320       -1.45740        0.49730
