8
3898	1
F          0.94120       -0.09170        0.02410
C          2.29920       -0.11170        0.06430
F          2.92610       -0.17460        1.26980
C          3.00060       -0.06940       -1.07530
F          2.34130       -0.00680       -2.26350
C          4.47590       -0.08950       -1.06870
O          5.09120       -0.05000       -2.12160
H          5.02530       -0.13920       -0.13380
