16
3979	1
C          0.92070       -0.05140        0.04180
C          2.44970       -0.08420       -0.06410
C          3.21700        0.92790        0.77330
N          4.10440       -0.11680        1.30120
C          3.16480       -1.12250        0.78890
C          2.94210       -0.09350       -1.49370
O          2.67150        0.83250       -2.24210
H          0.59610       -0.04400        1.10420
H          0.48920       -0.94710       -0.45330
H          0.52390        0.86070       -0.45230
H          2.59610        1.33750        1.60630
H          3.75150        1.72180        0.20700
H          4.09600       -0.10940        2.34870
H          2.52410       -1.48480        1.62890
H          3.65510       -1.95700        0.24220
H          3.53600       -0.92110       -1.86920
