15
3955	1
N          2.04900        0.02070        1.70420
C          2.31780        0.00210        0.26710
C          2.98560        1.29630       -0.23340
F          3.28940        1.23370       -1.58520
C          2.37830        2.64290        0.08330
O          3.60760        3.12400        0.58410
C          4.17120        1.83080        0.53200
H          1.70690       -0.92630        1.98590
H          1.27620        0.69210        1.90970
H          1.37160       -0.16930       -0.29170
H          3.00860       -0.84060        0.04690
H          1.64120        2.64070        0.91340
H          2.03930        3.19450       -0.82060
H          4.24850        1.44140        1.57180
H          5.12150        1.79230       -0.04370
