18
3915	1
N          0.89600        0.25480       -0.57550
C          2.22540       -0.01480       -0.03200
C          2.78390        1.16790        0.78810
O          4.03850        0.83170        1.33470
C          2.83020        2.58370        0.18140
C          2.50410        3.11760        1.57900
C          1.89970        1.74720        1.90070
H          0.53690       -0.62430       -1.01320
H          0.97060        0.96080       -1.34190
H          2.92420       -0.26000       -0.86250
H          2.16220       -0.89800        0.64090
H          4.68820        0.81920        0.58380
H          1.93540        2.76660       -0.45430
H          3.75790        2.93260       -0.32080
H          1.86660        4.02200        1.67430
H          3.45690        3.22790        2.14860
H          0.83530        1.76110        1.56780
H          1.99520        1.34680        2.93280
