15
4006	1
O          0.88690       -0.08460        0.23460
C          2.28760       -0.08220        0.11030
C          3.02740        0.98470        0.92970
C          4.05640       -0.08680        1.30240
C          3.02930       -1.15600        0.91920
C          2.67490       -0.07130       -1.31370
C          2.97510       -0.09130       -2.48160
H          0.65930       -0.08660        1.20040
H          2.44090        1.22270        1.84620
H          3.40030        1.90110        0.42200
H          4.44580       -0.09110        2.34450
H          4.86900       -0.08300        0.54200
H          2.44360       -1.40260        1.83410
H          3.40240       -2.06850        0.40490
H          3.20170       -0.10900       -3.51560
