15
4071	1
C          0.77710       -0.03770       -0.23680
C          2.28540       -0.05830        0.02460
C          2.73570       -0.03410        1.49530
F          4.11080       -0.11060        1.64030
C          3.12750       -0.86490       -0.93210
C          3.10500        0.69250       -1.00460
F          4.31280        1.20550       -0.56130
H          0.30650       -0.92430        0.23730
H          0.54070       -0.05290       -1.32290
H          0.33710        0.88110        0.20440
H          2.28380       -0.89800        2.02620
H          2.37590        0.90040        1.97430
H          2.57040       -1.31260       -1.78410
H          4.15510       -1.18820       -0.65950
H          2.77950        0.93890       -2.03830
