17
4025	1
N          0.71780        0.07360       -0.19580
C          2.16760        0.12140        0.02810
C          2.65150        0.15900        1.48650
C          2.18540        1.43520        2.18060
F          2.62930        1.44100        3.49020
C          2.93510       -0.82860       -0.87000
C          3.02680        0.70050       -1.07950
H          0.33470       -0.77690        0.27650
H          0.47550        0.01170       -1.21190
H          3.76190        0.11300        1.53480
H          2.24540       -0.72310        2.02690
H          1.07620        1.49320        2.17870
H          2.59550        2.32550        1.65790
H          2.47810       -1.20760       -1.80880
H          3.96990       -1.13350       -0.60500
H          2.35500        1.19040       -1.81640
H          3.86630        1.25220       -0.60420
