17
4084	1
C          0.71460       -0.28170       -0.03400
C          2.24180       -0.20500        0.05800
C          3.02030       -0.22170       -1.27760
N          4.47280       -0.05960       -1.15100
C          2.60010       -1.12580       -2.41520
C          2.39020        0.41590       -2.50450
F          3.29080        0.96970       -3.40070
H          0.28700       -0.24440        0.99010
H          0.38300       -1.23010       -0.50120
H          0.31060        0.58090       -0.60300
H          2.60150       -1.05370        0.67810
H          2.49800        0.73760        0.58760
H          4.67070        0.90370       -0.79620
H          4.97650       -0.18300       -2.05960
H          1.62340       -1.63830       -2.30620
H          3.30170       -1.41070       -3.22880
H          1.31040        0.54190       -2.73110
