16
4041	1
C          2.63030        1.17740       -0.60400
O          3.88910        0.58210       -0.38860
C          3.70760       -0.73790        0.08380
C          5.05190       -1.43970        0.33550
F          5.01380       -2.71380        0.87640
C          6.31080       -1.06290       -0.41880
C          6.09370       -0.59180        1.03270
H          2.79210        2.21030       -0.97440
H          2.05280        1.25830        0.34370
H          2.05520        0.63680       -1.38830
H          3.16140       -1.34960       -0.66910
H          3.15230       -0.73600        1.04920
H          6.00390       -0.41190       -1.26420
H          6.84940       -2.01650       -0.60590
H          6.08110        0.51610        0.95830
H          6.90190       -1.08990        1.60910
