14
4010	1
O          0.85990        0.09340        0.17700
C          2.25480        0.09670        0.00930
C          3.05210        1.11820        0.81700
N          4.03080        0.09500        1.21210
C          3.05460       -0.92820        0.81150
C          2.60800        0.11290       -1.42170
C          2.87920        0.09480       -2.59730
H          0.65780        0.09520        1.14530
H          2.48760        1.45050        1.72280
H          3.49030        1.97770        0.26580
H          4.20850        0.09280        2.24500
H          2.49050       -1.26380        1.71710
H          3.49270       -1.78710        0.25940
H          3.11790        0.08010       -3.62910
