17
4037	1
C          1.04040       -0.28160        0.05410
N          2.49990       -0.18440        0.09120
C          2.96770        0.09900        1.45130
C          4.49890        0.17530        1.46530
F          5.11530        1.19160        0.75450
C          5.10350        0.03930        2.84430
C          5.32970       -1.05040        1.78010
H          0.71300       -0.50030       -0.98420
H          0.57210        0.67370        0.37860
H          0.69040       -1.11020        0.70670
H          2.79110        0.59770       -0.54150
H          2.61330       -0.69960        2.14210
H          2.56120        1.07340        1.80370
H          4.55440       -0.48340        3.65640
H          6.11720        0.44870        3.04000
H          4.64310       -1.92300        1.73590
H          6.21580       -0.98970        1.11260
