17
4078	1
N          1.06370        0.04230       -0.52180
C          2.49100        0.06240       -0.22610
C          3.25010       -0.81900       -1.24660
C          3.39510        0.69510       -1.27220
N          2.70560        1.41240       -2.35350
C          4.65460        1.35440       -0.69590
O          4.34820        2.62070       -0.17920
H          0.60670        0.77130        0.07090
H          0.68010       -0.88720       -0.23500
H          2.81610       -0.27700        0.78180
H          2.72070       -1.15210       -2.16510
H          4.23300       -1.24710       -0.95550
H          1.87700        0.89180       -2.72140
H          3.37640        1.52060       -3.14790
H          5.43860        1.43040       -1.48310
H          5.09040        0.74090        0.12220
H          4.34130        3.24940       -0.94760
