18
4130	1
C          1.08100        0.13110       -0.04700
C          2.60360        0.31190        0.05040
N          3.37610       -0.54970       -0.89500
C          3.39260        0.92470       -1.01930
C          2.75360        1.47750       -2.30900
C          4.73940        1.53040       -0.59920
O          4.57600        2.87480       -0.23810
H          0.79410       -0.78030        0.51740
H          0.69470        0.01840       -1.07720
H          0.58500        1.00510        0.42330
H          3.06050        0.28880        1.06290
H          2.73370       -0.95630       -1.61330
H          1.86020        0.92040       -2.64830
H          3.49730        1.42980       -3.13180
H          2.46660        2.53790       -2.15320
H          5.47900        1.43000       -1.42640
H          5.17840        0.98950        0.26730
H          4.62460        3.40590       -1.07540
