15
4107	1
C          0.93600        0.06530       -0.21470
C          2.45570        0.13790       -0.05630
C          3.18800       -0.86290       -0.96270
C          3.28400        0.64390       -1.21630
F          2.54550        1.12350       -2.28670
C          4.56720        1.38030       -0.83260
F          4.27190        2.69880       -0.54130
H          0.55460       -0.82470        0.32810
H          0.61490       -0.00750       -1.27570
H          0.48250        0.97420        0.23160
H          2.90280        0.12170        0.96100
H          2.67370       -1.29690       -1.84720
H          4.18910       -1.22260       -0.64260
H          5.27280        1.34880       -1.68840
H          5.06190        0.91910        0.04930
