14
4099	1
O          0.95240        0.11210       -0.40140
C          2.31630        0.06190       -0.09130
C          3.18260       -0.72870       -1.09250
C          3.11790        0.78040       -1.16840
O          2.43930        1.19520       -2.32150
C          4.45800        1.45060       -0.86220
F          4.25330        2.79540       -0.61800
H          0.58320       -0.75000       -0.08030
H          2.63640        0.52030        0.86880
H          2.47990       -1.33520       -1.70400
H          3.93560       -1.23480       -0.45190
H          1.90530        1.98390       -2.04540
H          5.13580        1.34060       -1.73460
H          4.94600        0.99760        0.02780
