16
4112	1
C          2.51420        0.57250       -1.48740
C          2.50030        0.03330       -0.05240
C          3.16460        0.90530        1.03660
F          3.04810        0.45110        2.34090
C          4.35850        1.79570        0.77600
C          2.94780        2.40670        0.92100
O          2.88740        3.09030        2.13900
H          1.99510       -0.15120       -2.15060
H          3.54840        0.69110       -1.86760
H          1.97490        1.53930       -1.55470
H          3.00260       -0.95730       -0.04650
H          1.44040       -0.12150        0.24280
H          4.75800        1.56810       -0.23050
H          5.01260        1.76890        1.67450
H          2.83900        3.02570        0.00620
H          1.94880        2.99210        2.44240
