17
4180	1
C          1.09830        0.25190       -0.13310
C          2.59190       -0.08420       -0.07190
C          2.80730       -1.57500       -0.35020
F          3.24640        0.63740       -1.06110
C          3.13770        0.24870        1.33970
C          4.53090        0.66970        1.45820
N          3.43710        1.66830        1.59180
H          0.68970        0.01000       -1.13760
H          0.94120        1.33560        0.05380
H          0.53260       -0.32580        0.62990
H          2.42060       -1.83930       -1.35770
H          2.28370       -2.19780        0.40720
H          3.89170       -1.81570       -0.31980
H          2.70120       -0.23820        2.23810
H          5.13740        0.91110        0.55700
H          5.00730        0.54920        2.45330
H          3.38660        2.21880        0.70400
