19
4178	1
C          1.10690       -0.01850       -0.02460
C          2.63260        0.07390        0.15570
C          2.95180        0.41820        1.62250
N          3.23300       -1.22740       -0.18400
C          3.15360        1.23810       -0.74350
C          4.50450        1.21220       -1.30170
N          3.33010        0.93520       -2.17370
H          0.68070       -0.81130        0.62720
H          0.85650       -0.26270       -1.07930
H          0.61920        0.94530        0.23860
H          2.56850       -0.37200        2.30300
H          2.48730        1.38610        1.91050
H          4.05040        0.50240        1.76820
H          2.79700       -1.98570        0.39050
H          4.25380       -1.23320        0.03890
H          2.73090        2.25570       -0.60020
H          5.15350        0.31130       -1.28610
H          4.92920        2.19110       -1.60780
H          3.28820       -0.09430       -2.34520
