18
4122	1
C          1.11010       -0.00880        0.50140
N          2.43210       -0.57090        0.78010
C          3.01540       -1.17640       -0.43230
C          3.49570       -0.21410       -1.53080
C          4.05140       -2.23170       -0.08990
C          2.69210       -2.63950       -0.70810
O          2.70870       -2.88640       -2.08520
H          0.68870        0.42010        1.43440
H          0.41650       -0.79360        0.13000
H          1.17930        0.81210       -0.24140
H          2.31790       -1.27790        1.54510
H          4.18150        0.53860       -1.08880
H          2.63050        0.30950       -1.98500
H          4.03750       -0.74250       -2.34360
H          4.05130       -2.73710        0.89900
H          4.82170       -2.51700       -0.83900
H          1.75500       -2.87100       -0.15850
H          3.07590       -3.80220       -2.17910
