17
4156	1
C          0.85590       -0.17810        0.07830
C          2.38390       -0.07870       -0.10760
N          2.74460       -0.38500       -1.49160
C          3.04480        1.26770        0.28650
F          4.43020        1.28830        0.30180
C          2.39040        2.61060        0.04280
C          2.47270        2.02290        1.46850
H          0.51300       -1.19540       -0.20640
H          0.31380        0.55000       -0.55780
H          0.57400       -0.02790        1.14000
H          2.83690       -0.85460        0.54800
H          2.29940        0.30880       -2.13650
H          2.40530       -1.34150       -1.74520
H          1.48830        2.44180       -0.57630
H          3.19450        3.29440       -0.30480
H          1.40890        1.96340        1.77450
H          3.13730        2.72130        2.01980
