18
4202	1
C          0.87400        0.05010        0.00990
C          2.40440        0.07250       -0.01860
C          3.00590        1.18910        0.83100
C          4.42990        0.69660        0.96410
O          5.08490        0.80580       -0.27530
C          4.15430       -0.76720        1.29880
N          3.01820       -1.18010        0.45820
H          0.47360        1.01100       -0.37710
H          0.50490       -0.10220        1.04660
H          0.49840       -0.77590       -0.63030
H          2.73450        0.21770       -1.07230
H          2.53780        1.17950        1.84320
H          2.89550        2.20670        0.39820
H          5.01270        1.24330        1.73960
H          6.01140        0.47770       -0.13460
H          3.84140       -0.81750        2.36910
H          5.03980       -1.42500        1.17170
H          2.35940       -1.74180        1.04830
