20
4208	1
C          1.04870       -0.00890       -0.05440
C          2.57760        0.04570       -0.02690
C          3.12560        1.13320        0.89070
C          4.55920        0.67620        0.99310
C          4.33940       -0.81000        1.25900
C          5.57770       -1.65600        0.97920
N          3.20060       -1.21460        0.41580
H          0.64220        0.95950       -0.41520
H          0.64620       -0.21180        0.96050
H          0.71380       -0.81380       -0.74210
H          2.94280        0.24630       -1.06030
H          2.65200        1.05670        1.89720
H          2.99290        2.16610        0.50370
H          5.16430        1.19400        1.76770
H          5.04540        0.81930       -0.00020
H          4.05180       -0.92570        2.33200
H          5.87940       -1.55990       -0.08550
H          5.36020       -2.72340        1.19410
H          6.41820       -1.32560        1.62530
H          2.54580       -1.78080        1.00560
