15
4257	1
C          1.23050        0.05450        0.28130
C          2.71380       -0.03190       -0.05820
O          3.38930        1.14550        0.39490
C          4.38490        0.73520        1.31870
C          4.23920       -0.71750        1.36700
C          4.97010       -1.54970        2.11110
O          3.27410       -1.11600        0.56660
H          0.77980        0.93550       -0.22250
H          1.09330        0.15680        1.37900
H          0.70850       -0.86260       -0.06520
H          2.84820       -0.13610       -1.15660
H          4.18800        1.17610        2.31890
H          5.39440        1.01010        0.94610
H          5.75510       -1.16540        2.75490
H          4.78460       -2.61850        2.07780
