12
4237	1
F          0.93760        0.00580       -0.11370
C          2.30110       -0.04190        0.11240
C          2.83660        1.07690        1.01060
O          4.03130        0.56170        1.45600
C          4.02710       -0.77810        1.38590
O          4.87040       -1.46290        1.94160
C          2.78380       -1.32420        0.78950
H          2.85080        0.04290       -0.85400
H          2.17600        1.21780        1.89460
H          2.95150        2.03360        0.45840
H          2.12470       -1.64910        1.62330
H          2.92700       -2.13280        0.04110
