13
4187	1
C          0.95450        0.14190        0.20950
C          2.42390       -0.07440       -0.13860
F          2.55490       -0.15030       -1.51350
F          3.15480        1.01160        0.31890
C          2.92120       -1.39060        0.47630
C          4.34720       -1.47410        0.87130
O          3.31020       -1.25420        1.81360
H          0.59280        1.08440       -0.25350
H          0.82570        0.21470        1.31070
H          0.33810       -0.70020       -0.17230
H          2.40620       -2.35480        0.27960
H          4.98510       -0.56600        0.86470
H          4.77240       -2.47830        1.07720
