18
4261	1
C          0.97200        0.01010       -0.13300
N          2.43020       -0.03540        0.02320
C          2.95480        1.08400        0.81390
C          4.36010        0.66410        1.23200
C          4.15440       -0.79710        1.37060
C          5.01760       -1.61990        1.97330
C          2.88840       -1.24180        0.72930
H          0.67890        0.94280       -0.66040
H          0.45690       -0.02380        0.85260
H          0.63350       -0.85160       -0.74680
H          2.34110        1.18330        1.74200
H          2.93760        2.05380        0.27260
H          4.64740        1.19160        2.16730
H          5.11440        0.82380        0.43190
H          5.93190       -1.23160        2.41110
H          4.81340       -2.68450        2.03050
H          2.18160       -1.58890        1.51690
H          3.07160       -2.04740       -0.01330
