16
4207	1
C          1.02670       -0.01660       -0.06790
C          2.55140        0.04470       -0.03950
C          3.06170        1.17790        0.84350
C          4.45780        0.69020        1.06720
F          5.18850        0.80270       -0.10790
C          4.15030       -0.77230        1.34220
O          3.10890       -1.15790        0.46230
H          0.61430        0.93210       -0.47260
H          0.62520       -0.18150        0.95480
H          0.69810       -0.85440       -0.71850
H          2.93120        0.18460       -1.07770
H          2.52830        1.16510        1.82340
H          2.97370        2.19230        0.39930
H          5.01170        1.20290        1.88200
H          3.76950       -0.88590        2.38250
H          5.05780       -1.40020        1.21820
