13
4276	3
N          1.12030       -0.09410        0.53440
C          2.30090        0.04640        0.05160
C          2.97360        1.37740       -0.23820
C          4.28790        0.82940       -0.76760
N          5.27280        1.54230       -1.17770
N          4.30820       -0.57550       -0.75940
N          3.13110       -1.03930       -0.27410
H          0.54360        0.72950        0.75980
H          3.11850        1.97610        0.68550
H          2.42650        1.95630       -1.01170
H          5.21690        2.57100       -1.16700
H          5.08500       -1.17750       -1.06900
H          2.90100       -2.03810       -0.16860
