16
4239	1
C          1.07430        0.00300        0.00970
C          2.59130       -0.03640        0.19630
C          3.13970        1.18530        0.93910
C          4.40400        0.60620        1.42340
O          5.31080        1.26610        1.90560
C          4.41920       -0.87460        1.34230
N          3.05090       -1.22390        0.93120
H          0.78710        0.90380       -0.57300
H          0.56120        0.03330        0.99450
H          0.73970       -0.90080       -0.54190
H          3.07160       -0.07540       -0.81060
H          2.54170        1.47230        1.83120
H          3.25370        2.03860        0.23640
H          4.64860       -1.33330        2.32950
H          5.16630       -1.20260        0.58820
H          2.47370       -1.30010        1.80370
