17
4330	1
C          0.94440        0.02580       -0.09480
C          2.41970       -0.12510        0.26440
O          2.61170       -1.28840        1.06660
C          3.17100       -0.88440        2.31470
C          4.52360       -1.55860        2.52540
C          3.31830        0.58090        2.25480
C          2.88440        1.02050        1.06710
H          0.61150       -0.85550       -0.68260
H          0.78980        0.93950       -0.70790
H          0.32430        0.09620        0.82500
H          3.03510       -0.19880       -0.65780
H          2.47630       -1.14840        3.14080
H          5.22090       -1.30020        1.69920
H          4.39150       -2.66080        2.54880
H          4.96820       -1.23440        3.49070
H          3.71210        1.21440        3.03900
H          2.88230        2.05780        0.75820
