11
4368	1
O          0.91460        0.21900        0.21220
N          2.26320        0.14740        0.11040
C          3.12470        1.17990        0.09240
N          4.39680        0.73100       -0.01670
C          4.24300       -0.61270       -0.06100
N          5.21140       -1.44440       -0.16370
N          2.95170       -0.97150        0.01620
H          2.54740       -1.93470        0.00610
H          0.58950        0.24950       -0.72380
H          2.84250        2.22250        0.15630
H          6.18600       -1.11400       -0.21940
