11
4379	1
N          0.99170        0.17500        0.14600
N          2.39180        0.13170        0.06430
C          3.23060        1.18150        0.03890
N          4.50970        0.75200       -0.04000
C          4.36840       -0.59360       -0.05800
N          5.34360       -1.42010       -0.12640
O          3.10830       -0.94580        0.00480
H          0.63600        0.67090       -0.70260
H          0.63010       -0.80570        0.12810
H          2.92830        2.21970        0.07640
H          6.31700       -1.08370       -0.17270
