13
4308	1
C          1.19060       -0.02970        0.22090
C          2.46410        0.07500       -0.16430
C          3.23030        1.36470       -0.20450
C          4.61560        0.90690       -0.71300
C          4.41120       -0.56440       -0.87830
O          5.27790       -1.32840       -1.27100
O          3.18510       -0.97880       -0.55630
H          0.63700        0.85030        0.53300
H          0.69840       -0.99700        0.22500
H          3.29760        1.80510        0.81370
H          2.75290        2.07510       -0.91350
H          5.41110        1.10130        0.03790
H          4.86570        1.37110       -1.69100
