14
4327	1
O          1.04870        0.07980        0.16720
C          2.44260        0.02470        0.03270
C          3.03180       -1.23190        0.69470
C          3.22450       -0.87590        2.17360
F          4.29650       -1.57050        2.70570
C          3.47890        0.58370        2.08070
C          3.04070        1.08810        0.88260
H          0.68300       -0.62850       -0.42400
H          2.74510        0.09130       -1.03690
H          4.06300       -1.31490        0.27560
H          2.52410       -2.19610        0.48040
H          2.30870       -1.02960        2.78330
H          3.84810        1.20220        2.88810
H          3.03020        2.14490        0.65080
