15
4341	1
O          1.19110        0.12980       -0.42980
C          2.53640       -0.00170       -0.06100
C          2.78080       -1.32000        0.73160
C          3.27890       -0.84090        2.05920
C          3.63110       -1.63850        3.07120
C          3.32220        0.59610        2.10070
C          2.89960        1.08900        0.90250
H          1.04440       -0.50730       -1.17670
H          3.20540        0.08080       -0.94740
H          3.55010       -1.94670        0.23120
H          1.84190       -1.89890        0.87240
H          3.56920       -2.71700        2.96550
H          3.98240       -1.21760        4.00840
H          3.63740        1.20290        2.93990
H          2.84240        2.14630        0.67910
