11
4303	1
N          1.06480        0.03160       -0.08680
C          2.34540       -0.00790       -0.07930
N          3.14410        1.07650       -0.07450
H          2.86620        2.08310       -0.07580
O          4.36540        0.62720       -0.06790
C          4.33380       -0.68790       -0.06840
N          5.36900       -1.44110       -0.06340
N          3.06650       -1.14230       -0.07540
H          2.72790       -2.13060       -0.07760
H          0.56420        0.93240       -0.08980
H          6.31450       -1.03160       -0.05860
