16
4322	1
C          1.01620        0.10240       -0.01980
C          2.54460        0.05230       -0.08180
C          3.13370       -1.20550        0.57830
C          3.32700       -0.85330        2.05940
F          4.40680       -1.53990        2.58630
C          3.56710        0.61080        1.97550
C          3.12550        1.11970        0.77980
H          0.58990       -0.74090       -0.60320
H          0.65030        1.05490       -0.45910
H          0.65330        0.02800        1.02830
H          2.88010        0.10780       -1.14070
H          4.16780       -1.28070        0.16450
H          2.63710       -2.17380        0.35600
H          2.41510       -1.01960        2.67160
H          3.92860        1.22760        2.78750
H          3.10730        2.17760        0.55320
