12
4344	1
F          1.02840       -0.02370       -0.41760
C          2.37960       -0.06940       -0.12380
C          2.74310       -1.39480        0.60300
C          3.25540       -0.92230        1.92230
O          3.65580       -1.65960        2.80850
C          3.22160        0.50770        2.02110
C          2.72250        1.01360        0.85820
H          2.97690        0.05580       -1.05200
H          3.54190       -1.94540        0.06130
H          1.85130       -2.04140        0.75000
H          3.53640        1.09890        2.87100
H          2.59210        2.07170        0.67340
