16
4324	1
N          1.02520        0.06030        0.00110
C          2.47960        0.02420       -0.12890
C          3.07370       -1.24000        0.51650
C          3.28690       -0.88930        1.99820
O          4.35510       -1.61270        2.55730
C          3.53070        0.57800        1.91870
C          3.07870        1.08770        0.72790
H          0.61940       -0.73080       -0.54920
H          0.67100        0.94880       -0.42220
H          2.77900        0.08040       -1.19960
H          4.09470       -1.32270        0.07530
H          2.55950       -2.20140        0.30400
H          2.37040       -1.03620        2.60940
H          5.19870       -1.28440        2.14850
H          3.90030        1.19300        2.72850
H          3.05790        2.14620        0.50460
