11
4363	2
O          1.14020       -0.09480        0.04290
C          2.47940       -0.01030       -0.05780
C          3.22360        1.15530       -0.09670
C          4.53130        0.72760       -0.20370
N          4.53020       -0.61800       -0.22330
O          5.62570       -1.40740       -0.32370
N          3.29350       -1.07850       -0.13700
H          0.59430        0.70210        0.09680
H          2.86320        2.17440       -0.05370
H          5.41600        1.34780       -0.26280
H          5.90140       -1.58200        0.61250
