15
4307	1
C          1.25550       -0.19670        0.29880
C          2.53560       -0.05610       -0.05100
C          3.23860        1.26310       -0.16270
C          4.66090        0.83900       -0.58900
C          4.54010       -0.65380       -0.65170
C          5.53880       -1.47390       -0.98480
O          3.32010       -1.09820       -0.33840
H          0.64890        0.67450        0.52520
H          0.81070       -1.18490        0.35950
H          3.24720        1.77990        0.82120
H          2.75380        1.89400       -0.93870
H          5.41670        1.13320        0.17090
H          4.92320        1.24700       -1.58900
H          6.51740       -1.07530       -1.23330
H          5.37970       -2.54720       -1.00960
