12
4362	2
N          1.11230       -0.12030        0.10370
C          2.51930       -0.04680        0.01410
C          3.27170        1.11290       -0.00480
C          4.57740        0.67630       -0.10180
N          4.56690       -0.66910       -0.13510
O          5.65750       -1.46570       -0.23140
N          3.32590       -1.12110       -0.06690
H          0.54960        0.74060        0.16290
H          0.64150       -1.03630        0.11030
H          2.91830        2.13420        0.04440
H          5.46720        1.29050       -0.14510
H          5.91470       -1.66090        0.70600
