12
4353	1
N          1.01710        0.03130       -0.27580
N          2.38540       -0.00010       -0.02970
C          3.18790       -1.20290        0.04220
C          4.50820       -0.55040        0.33690
O          5.56190       -1.14330        0.50060
N          4.39070        0.85230        0.40840
C          3.17170        1.14410        0.19660
H          0.67360       -0.94590       -0.41960
H          0.86210        0.56550       -1.16080
H          3.19760       -1.74220       -0.92860
H          2.85620       -1.86140        0.87260
H          2.79250        2.15740        0.19320
