12
4390	2
C          1.04670        0.04940       -0.16250
C          2.36130        0.11530        0.05590
N          3.20190       -1.00220        0.22840
C          4.45020       -0.54350        0.42460
O          5.41640       -1.26640        0.60700
C          4.47370        0.92090        0.38720
C          3.16960        1.33300        0.15700
H          0.54860       -0.91310       -0.21880
H          0.46530        0.95770       -0.28560
H          2.91880       -1.99330        0.20900
H          5.33140        1.56820        0.51260
H          2.83310        2.35790        0.07160
