11
4455	1
N          1.08460        0.05140       -0.01280
C          2.49580        0.01680       -0.01720
N          3.27870        1.11860       -0.02320
N          4.53260        0.69140       -0.02600
H          5.37500        1.30830       -0.03060
C          4.49830       -0.66190       -0.02160
O          5.48490       -1.37610       -0.02260
N          3.22460       -1.11680       -0.01610
H          2.88660       -2.10500       -0.01190
H          0.58890        0.95430       -0.01400
H          0.54440       -0.82550       -0.00830
