13
4442	3
C          1.00730        0.09430        0.01560
C          2.50010        0.08290       -0.06610
N          3.20400       -0.99190       -0.06260
C          4.62610       -0.67810       -0.15320
C          4.55110        0.82100       -0.20800
O          5.50420        1.57910       -0.29030
N          3.28380        1.23330       -0.15450
H          0.61210       -0.94180        0.07810
H          0.59110        0.58630       -0.88790
H          0.69050        0.65730        0.91790
H          5.06860       -1.09880       -1.08060
H          5.16940       -1.02680        0.75020
H          2.95440        2.20960       -0.17480
