11
4388	1
O          1.09120       -0.00280       -0.39330
C          2.26570       -0.01090       -0.06200
C          3.08190       -1.26110        0.11950
C          4.39100       -0.63450        0.51410
O          5.40120       -1.26740        0.77480
C          4.31150        0.81970        0.54860
C          3.04300        1.19190        0.20480
H          3.17170       -1.83120       -0.82920
H          2.67440       -1.90050        0.93070
H          5.11310        1.50100        0.80170
H          2.68850        2.21240        0.14460
