17
4413	1
C          1.09020        0.15700        0.33260
C          2.56280        0.07610       -0.06720
C          2.89190       -1.21010       -0.88890
C          3.39440       -0.61490       -2.17710
C          3.87040       -1.40430       -3.35420
N          3.37020        0.65480       -2.16980
N          2.89920        1.12970       -0.98950
H          0.83700       -0.68540        1.01040
H          0.43800        0.10820       -0.56580
H          0.89610        1.11220        0.86480
H          3.21360        0.15000        0.83120
H          1.99560       -1.83400       -1.09700
H          3.68990       -1.81100       -0.40300
H          3.80220       -2.49150       -3.14040
H          4.92710       -1.14560       -3.57480
H          3.24260       -1.17060       -4.23930
H          2.82240        2.13610       -0.78280
