13
4451	2
C          0.98900        0.11580        0.04450
C          2.48010        0.07710        0.04000
N          3.27250        1.17220        0.03590
N          4.52210        0.73400        0.03280
H          5.36890        1.34500        0.02920
C          4.47780       -0.60890        0.03500
N          5.50860       -1.37020        0.03300
N          3.21260       -1.05490        0.03960
H          2.87410       -2.04320        0.04210
H          0.63140        1.16690        0.04400
H          0.60710       -0.39680        0.95180
H          0.60160       -0.39960       -0.85880
H          6.45940       -0.97250        0.02950
