13
4389	2
C          1.06090       -0.05260       -0.27480
C          2.36910        0.00940       -0.02000
N          3.18660       -1.11000        0.23040
C          4.48530       -0.61660        0.44940
N          5.50490       -1.35060        0.70960
C          4.48930        0.84140        0.33540
C          3.18640        1.22950        0.04630
H          0.55270       -1.01120       -0.30020
H          0.49450        0.85490       -0.45860
H          2.89200       -2.09760        0.24960
H          5.41330       -2.37490        0.77200
H          5.33590        1.50500        0.45130
H          2.85160        2.24800       -0.10040
