11
4475	1
O          0.96300       -0.11310        0.01620
C          2.30850       -0.11030        0.02250
C          3.13060        0.99830        0.02410
N          4.40170        0.55870        0.03090
H          5.27070        1.13820        0.03380
C          4.30350       -0.78690        0.03320
N          5.30870       -1.58100        0.03940
O          3.05340       -1.19050        0.02810
H          0.46450        0.71600        0.01220
H          2.83250        2.03850        0.02060
H          6.27210       -1.21470        0.04320
