14
4431	2
C          1.01640       -0.12700        0.19930
C          2.49780       -0.04000        0.01700
N          3.24480       -1.08030       -0.10720
N          4.54480       -0.72200       -0.25880
C          4.63730        0.66900       -0.22890
N          5.73590        1.32170       -0.34660
C          3.27770        1.27300       -0.04120
H          0.68420       -1.18690        0.20910
H          0.50950        0.40250       -0.63390
H          0.73350        0.34890        1.16110
H          5.32060       -1.38960       -0.37560
H          6.63110        0.82750       -0.47310
H          2.97620        1.89560       -0.90950
H          3.20330        1.84140        0.90960
