12
4445	1
O          0.95780        0.07310       -0.07250
C          2.30370        0.06190       -0.06530
C          3.13370        1.16560       -0.06080
N          4.40710        0.72590       -0.05400
H          5.27290        1.31000       -0.04940
C          4.32220       -0.62140       -0.05440
N          5.33790       -1.40310       -0.04890
N          3.04840       -1.05680       -0.06120
H          2.71030       -2.04510       -0.06300
H          0.46770        0.90720       -0.07510
H          2.83810        2.20660       -0.06250
H          6.29660       -1.02490       -0.04380
