10
4436	1
F          0.92730       -0.06880        0.24240
C          2.26080        0.01030       -0.00240
C          3.03450       -1.03980       -0.24260
O          4.30450       -0.67730       -0.45010
C          4.37290        0.65920       -0.34330
O          5.41260        1.28230       -0.48390
C          3.04890        1.28510       -0.03720
H          2.69010       -2.06510       -0.26940
H          2.70880        1.96110       -0.84960
H          3.04810        1.80030        0.94630
