14
4514	2
C          1.04720       -0.03910       -0.06850
C          2.53910       -0.01470       -0.06530
N          3.27280        1.11980       -0.06060
C          4.54790        0.68790       -0.05900
N          5.67180        1.54220       -0.05430
C          4.57780       -0.68660       -0.06270
N          3.30860       -1.12340       -0.06660
H          2.98670       -2.11670       -0.06990
H          0.64460        0.99570       -0.06660
H          0.68260       -0.57130        0.83460
H          0.68640       -0.56650       -0.97600
H          5.54460        2.56440       -0.05180
H          6.62400        1.14890       -0.05320
H          5.45270       -1.32370       -0.06250
