9
4562	1
O          1.17540        0.18580        0.02410
C          2.51580        0.07610        0.01870
N          3.36690        1.12040        0.01550
N          4.58780        0.60570        0.01050
C          4.43430       -0.73270        0.01080
O          5.44860       -1.61580        0.00650
O          3.16640       -1.06040        0.01580
H          0.75120        1.05500        0.02600
H          6.36710       -1.31270        0.00290
