10
4528	1
O          1.05510       -0.12110        0.01990
C          2.40020       -0.10010        0.02490
N          3.14300        1.02450        0.02920
N          4.41350        0.64430        0.03340
C          4.41650       -0.70350        0.03170
O          5.52890       -1.46000        0.03480
N          3.16970       -1.19930        0.02630
H          2.87040       -2.19950        0.02390
H          0.54830        0.70270        0.01920
H          6.40490       -1.05000        0.03870
