17
4497	1
C          0.91870        0.03660        0.04500
C          2.41160       -0.08940        0.04940
C          3.25410        0.93720        0.05230
C          4.54500        0.47390        0.05600
C          4.54240       -0.85410        0.05550
C          5.77470       -1.70620        0.05890
C          3.14490       -1.39720        0.05110
H          0.60620        1.10280        0.04450
H          0.50400       -0.45750        0.94800
H          0.50940       -0.45680       -0.86090
H          2.96380        1.98010        0.05190
H          5.43220        1.09410        0.05900
H          6.69380       -1.08210        0.06190
H          5.78140       -2.34900       -0.84580
H          5.77600       -2.34970        0.96310
H          2.92990       -1.98880        0.96600
H          2.93540       -1.98810       -0.86560
