13
4555	1
C          1.21470        0.06830       -0.06800
C          2.70040       -0.04960       -0.07340
N          3.55240        0.99340       -0.07460
N          4.77400        0.48240       -0.07980
C          4.62970       -0.85650       -0.08150
C          5.75690       -1.83150       -0.08710
O          3.36000       -1.18230       -0.07760
H          0.91330        1.13700       -0.06520
H          0.80740       -0.42660        0.83780
H          0.80110       -0.42360       -0.97260
H          6.72940       -1.29570       -0.08970
H          5.69060       -2.46870       -0.99320
H          5.69700       -2.47180        0.81720
