11
4548	1
N          1.02230        0.06580        0.07860
C          2.43320        0.06320        0.07180
N          3.18490        1.18590        0.06580
C          4.45350        0.73140        0.06060
C          4.41380       -0.64460        0.06370
O          5.46820       -1.48050        0.06020
O          3.16410       -1.02850        0.07060
H          0.50540        0.95670        0.07900
H          0.50400       -0.82410        0.08290
H          5.33410        1.35980        0.05490
H          6.37320       -1.13870        0.05500
