7
4496	1
F          1.26000        0.19860        0.05570
C          2.60800        0.06440        0.05070
N          3.47970        1.09400        0.04860
O          4.65860        0.54200        0.04380
C          4.51660       -0.75990        0.04290
O          5.43520       -1.55860        0.03880
O          3.24850       -1.08100        0.04720
