10
4486	1
N          1.07360        0.04380       -0.04710
C          2.48410        0.02410       -0.05140
N          3.25930        1.12970       -0.05790
N          4.50940        0.69630       -0.06020
H          5.35720        1.30560       -0.06510
C          4.45580       -0.65630       -0.05500
O          5.43000       -1.38670       -0.05530
O          3.21380       -1.07010       -0.04960
H          0.56760        0.94090       -0.04890
H          0.54470       -0.83990       -0.04220
