14
4681	1
C          0.97540        0.04920       -0.08060
C          2.46690        0.06340       -0.07370
C          3.29040        1.16570       -0.07060
N          4.54900        0.69760       -0.06440
C          5.77810        1.47820       -0.05920
N          4.50420       -0.62560       -0.06380
N          3.24360       -1.03870       -0.06940
H          0.57650        1.08560       -0.08310
H          0.60540       -0.47820        0.82310
H          0.61380       -0.47930       -0.98710
H          3.00510        2.21000       -0.07250
H          5.55060        2.56570       -0.06090
H          6.37710        1.23450       -0.96140
H          6.36860        1.23560        0.84890
