13
4599	2
N          0.96140        0.08780        0.00040
C          2.37300        0.10580        0.00740
C          3.16790        1.23410        0.01040
C          4.44960        0.73200        0.01710
N          5.64070        1.49090        0.02240
N          4.40710       -0.61300        0.01800
H          5.22410       -1.26300        0.02260
N          3.14130       -1.00250        0.01210
H          0.43030        0.97050       -0.00300
H          0.45550       -0.80940       -0.00130
H          2.85660        2.27040        0.00790
H          5.60090        2.52030        0.02130
H          6.55600        1.01840        0.02730
