14
4598	2
C          0.92680       -0.06010       -0.06890
C          2.41970       -0.03600       -0.06280
C          3.22460        1.08430       -0.05840
C          4.50670        0.57710       -0.05380
N          5.69750        1.33530       -0.04810
N          4.47070       -0.76900       -0.05530
N          3.19830       -1.13560       -0.06080
H          2.87250       -2.12760       -0.06320
H          0.51990        0.97330       -0.06940
H          0.56100       -0.59160        0.83420
H          0.56830       -0.58970       -0.97590
H          2.92080        2.12290       -0.05860
H          5.65830        2.36480       -0.04720
H          6.61220        0.86190       -0.04490
