12
4607	2
N          1.04370       -0.02850       -0.08500
C          2.45510       -0.00240       -0.07810
C          3.24440        1.12450       -0.07530
C          4.52300        0.61710       -0.06860
N          5.71820        1.36760       -0.06340
O          4.46910       -0.69590       -0.06760
N          3.23120       -1.10390       -0.07330
H          0.50750        0.85120       -0.08840
H          0.54290       -0.92860       -0.08660
H          2.93390        2.16110       -0.07780
H          5.68600        2.39730       -0.06450
H          6.62910        0.88710       -0.05850
