13
4655	1
N          0.95460       -0.06970        0.00960
C          2.36340       -0.03150       -0.08290
C          3.14670        1.10720       -0.11900
C          4.45480        0.66600       -0.21230
N          4.46980       -0.68120       -0.23090
O          5.57490       -1.45930       -0.31880
C          3.20240       -1.12250       -0.15400
H          0.41370        0.80570        0.05760
H          0.45990       -0.97310        0.02950
H          2.80820        2.13420       -0.08270
H          5.33800        1.28920       -0.26330
H          5.85150       -1.61920        0.62000
H          2.91200       -2.16520       -0.15020
