10
4669	1
O          0.91980        0.26490       -0.24820
N          2.26280        0.16570       -0.10390
C          3.14170        1.18300       -0.07210
N          4.40800        0.73650        0.07990
C          4.29270       -0.60790        0.14180
F          5.33800       -1.45640        0.29260
C          2.96890       -0.96460        0.02770
H          0.56720        0.33760        0.67580
H          2.87120        2.22730       -0.15750
H          2.55260       -1.96340        0.03930
