11
4601	2
N          1.02540       -0.02950       -0.09000
C          2.43700       -0.01570       -0.08440
C          3.23540        1.10890       -0.08340
C          4.51760        0.60780       -0.07720
F          5.66260        1.33270       -0.07400
N          4.46780       -0.73700       -0.07480
H          5.28390       -1.38780       -0.07030
N          3.20160       -1.12460       -0.07910
H          0.49680        0.85480       -0.09380
H          0.51680       -0.92520       -0.09030
H          2.92710        2.14600       -0.08660
