11
4608	2
N          0.95110       -0.04940        0.08210
C          2.36260       -0.02600        0.08800
C          3.15390        1.09920        0.09070
C          4.43270        0.58940        0.09650
O          5.57630        1.29850        0.10090
O          4.37540       -0.72310        0.09700
N          3.13660       -1.12870        0.09200
H          0.41660        0.83130        0.07930
H          0.44870       -0.94850        0.08050
H          2.84550        2.13640        0.08880
H          5.56140        2.26590        0.10030
