11
4676	1
N          0.96880        0.03710       -0.16130
N          2.36760       -0.01300       -0.05100
C          3.18720        1.05170       -0.04280
C          4.47420        0.58390        0.08020
F          5.60900        1.32200        0.13270
C          4.37220       -0.79240        0.14000
N          3.06900       -1.13250        0.05780
H          0.60070        0.57690        0.65420
H          0.59050       -0.93600       -0.10650
H          2.86900        2.08320       -0.11820
H          5.18680       -1.49760        0.23690
