11
4665	1
N          0.88430        0.04890       -0.25760
N          2.28310       -0.02600       -0.14790
C          3.13410        1.01630       -0.13780
N          4.41650        0.60680       -0.02210
C          4.34330       -0.74040        0.04000
F          5.41750       -1.55720        0.15990
C          3.02840       -1.13670       -0.03770
H          0.52520        0.58260        0.56640
H          0.48300       -0.91620       -0.22090
H          2.83180        2.05280       -0.21280
H          2.64610       -2.14910       -0.01630
