12
4678	1
N          0.98060        0.00480        0.19470
C          2.38770        0.02650        0.07890
C          3.19490        1.14380        0.00050
N          4.47730        0.73540       -0.10140
N          4.48100       -0.58980       -0.08670
O          5.60220       -1.34360       -0.17570
C          3.22670       -1.06040        0.02070
H          0.44930        0.88660        0.22930
H          0.47790       -0.89300        0.24530
H          2.87810        2.17810        0.01550
H          5.90830       -1.45740        0.76040
H          2.95340       -2.10710        0.05310
