9
4622	1
F          0.98610       -0.05000       -0.08190
C          2.34090       -0.02630       -0.07850
C          3.14080        1.09640       -0.07510
C          4.41910        0.58220       -0.07250
O          5.45090        1.22810       -0.06920
O          4.36460       -0.72880       -0.07430
N          3.12410       -1.12160       -0.07790
H          2.80980       -2.11700       -0.07990
H          2.83500        2.13430       -0.07450
