11
4611	2
N          1.04060        0.03000        0.06900
C          2.45160        0.05740        0.07480
C          3.24300        1.18250        0.07730
C          4.52180        0.67240        0.08290
O          5.66370        1.38420        0.08720
N          4.47540       -0.67370        0.08370
O          3.21640       -1.01100        0.07870
H          0.50320        0.90890        0.06610
H          0.54210       -0.87120        0.06760
H          2.93450        2.21960        0.07530
H          5.64670        2.35160        0.08650
