14
4585	2
N          0.92080       -0.04470        0.12030
C          2.33010       -0.02130       -0.02340
C          3.06620       -1.10860       -0.11350
C          4.44250       -0.72460       -0.24900
O          5.36630       -1.51510       -0.35430
C          4.60110        0.75800       -0.24510
C          3.13790        1.24810       -0.08870
H          0.41220       -0.94020        0.16010
H          0.39430        0.83810        0.18620
H          2.68880       -2.12310       -0.08880
H          5.04330        1.09800       -1.20610
H          5.22960        1.07320        0.61530
H          2.82260        1.85330       -0.96560
H          3.00820        1.82850        0.84980
