12
4705	1
C          1.12630        0.00330       -0.09170
C          2.61340        0.06050       -0.00370
N          3.33270        1.20730        0.00930
C          4.60630        0.77450        0.09780
N          4.64040       -0.56540        0.13430
O          5.74590       -1.34160        0.22610
N          3.40680       -1.02600        0.07330
H          0.70410        1.02890       -0.14450
H          0.72060       -0.50990        0.80480
H          0.82930       -0.55810       -1.00180
H          5.47550        1.41780        0.13460
H          6.00270       -1.53200       -0.71230
