12
4728	1
C          1.01710        0.10230       -0.03030
C          2.51120        0.07670       -0.02960
N          3.20500       -1.00530       -0.03180
C          4.54290       -0.58400       -0.03010
N          5.56250       -1.36190       -0.03150
C          4.54540        0.86210       -0.02670
N          3.32380        1.24710       -0.02640
H          0.60920       -0.93080       -0.03290
H          0.65690        0.63590       -0.93420
H          0.65600        0.63160        0.87570
H          5.44070       -2.38500       -0.03400
H          5.39660        1.52970       -0.02470
