13
4781	1
N          1.01270       -0.06500       -0.06230
C          2.42430       -0.08650       -0.05630
C          3.24980        1.01540       -0.05520
N          4.51870        0.57660       -0.04890
H          5.38580        1.15840       -0.04650
C          4.43530       -0.76910       -0.04620
N          5.55940       -1.62350       -0.03950
N          3.16100       -1.21380       -0.05060
H          0.50630        0.83220       -0.06640
H          0.48190       -0.94770       -0.06260
H          2.95400        2.05630       -0.05880
H          6.51090       -1.22910       -0.03640
H          5.43280       -2.64570       -0.03780
