11
4735	1
F          0.82480        0.14230        0.03120
C          2.17880        0.03680        0.03400
C          2.99680        1.07510        0.03810
C          4.35080        0.58040        0.04000
F          5.47150        1.34720        0.04420
C          4.34080       -0.74230        0.03720
C          2.93200       -1.26650        0.03290
H          2.69230        2.11330        0.03960
H          5.23170       -1.35650        0.03790
H          2.71710       -1.86120        0.94540
H          2.72120       -1.85730       -0.88310
