11
4696	1
N          0.89140        0.09820       -0.15750
N          2.29030        0.04640       -0.04980
C          3.11070        1.11160       -0.04160
C          4.40590        0.65280        0.07710
C          4.28900       -0.72340        0.13470
F          5.31010       -1.60630        0.25130
N          2.99060       -1.07200        0.05520
H          0.52590        0.62450        0.66860
H          0.51230       -0.87560       -0.12010
H          2.78900        2.14200       -0.11590
H          5.31250        1.24130        0.11570
