12
4766	2
C          0.91670       -0.02860       -0.07300
C          2.40870       -0.01070       -0.06790
C          3.21730        1.11000       -0.06710
C          4.49750        0.60700       -0.06180
F          5.64410        1.32930       -0.05910
N          4.44410       -0.73570       -0.05970
H          5.25810       -1.38900       -0.05580
N          3.17700       -1.11920       -0.06340
H          0.51390        1.00630       -0.07610
H          0.54920       -0.55610        0.83160
H          0.55540       -0.55910       -0.97840
H          2.91480        2.14890       -0.06990
