15
4764	1
C          1.06850       -0.04480       -0.02290
C          2.56030       -0.01920       -0.01580
C          3.36270        1.10540       -0.01270
C          4.64890        0.61010       -0.00620
C          5.91120        1.40760       -0.00060
N          4.59920       -0.73440       -0.00560
H          5.41470       -1.38650       -0.00120
N          3.33390       -1.12340       -0.01140
H          0.66030        0.98810       -0.02550
H          0.70250       -0.57500        0.88080
H          0.71110       -0.57620       -0.92930
H          3.05140        2.14200       -0.01480
H          5.68580        2.49500       -0.00240
H          6.50910        1.16140       -0.90260
H          6.50040        1.16250        0.90740
