13
4726	1
C          1.07140        0.06940        0.01030
C          2.56610        0.08270        0.01090
N          3.28530       -0.98310        0.01020
C          4.63670       -0.58540        0.01120
N          5.63030       -1.39640        0.01080
C          4.71830        0.86230        0.01270
C          3.40810        1.29220        0.01260
H          0.69070       -0.97400        0.00900
H          0.69670        0.59180       -0.89440
H          0.69580        0.58990        0.91560
H          5.47560       -2.41510        0.00960
H          5.60260        1.48540        0.01370
H          3.07790        2.32240        0.01350
