11
4748	1
O          0.92360       -0.02950        0.05520
C          2.26980       -0.02280        0.06150
C          3.07010        1.10210        0.06570
C          4.36680        0.63340        0.07160
F          5.49210        1.38810        0.07710
C          4.30790       -0.74640        0.07070
N          3.02000       -1.13980        0.06460
H          2.67190       -2.12420        0.06260
H          0.42130        0.79740        0.05320
H          2.74890        2.13530        0.06450
H          5.15280       -1.42240        0.07450
