12
4703	1
N          1.09140       -0.07780        0.11960
C          2.49970       -0.05710        0.03950
N          3.23570        1.07660        0.01240
C          4.50110        0.61760       -0.06930
N          4.51040       -0.72540       -0.08850
N          5.64510       -1.54790       -0.17350
N          3.26640       -1.16190       -0.02240
H          0.56410        0.80580        0.15910
H          0.58580       -0.97450        0.13560
H          5.38100        1.24550       -0.11400
H          6.23720       -1.37030        0.66990
H          5.33790       -2.54660       -0.15570
