18
4868	1
C          2.13680       -1.33330       -0.05820
N          2.17250        0.12810       -0.10090
C          2.77160        0.66950        1.12600
C          2.75950        2.19550        1.23770
C          2.46460        2.01810        2.73560
O          3.66110        1.86470        3.45680
C          1.90370        0.63360        2.39090
H          1.70140       -1.71810       -1.00430
H          1.51120       -1.69000        0.78900
H          3.16570       -1.74200        0.03880
H          1.19600        0.48660       -0.22060
H          3.79950        0.28730        1.33490
H          1.83710        2.59780        0.75520
H          3.66140        2.76300        0.92400
H          1.78390        2.73440        3.24640
H          4.11470        2.74680        3.43070
H          0.83090        0.75980        2.11090
H          2.03990       -0.19980        3.11240
