18
4862	1
C          1.03970        0.06870        0.18700
C          2.56280        0.07980        0.10350
C          3.05420       -0.62790       -1.16410
C          4.56170       -0.84640       -1.30590
C          4.23170       -2.18270       -1.97740
F          4.03180       -1.97680       -3.33580
C          2.88160       -2.14630       -1.25590
H          0.71370        0.59810        1.10700
H          0.66130       -0.97490        0.22530
H          0.60170        0.58360       -0.69450
H          2.98060       -0.41740        1.00580
H          2.91600        1.13310        0.08650
H          2.66860       -0.15540       -2.09960
H          5.00040       -1.06490       -0.30330
H          5.16350       -0.09710       -1.86270
H          4.90650       -3.04840       -1.80770
H          3.01930       -2.59540       -0.24360
H          1.98520       -2.55500       -1.76860
