11
4808	1
N          1.05550        0.08450       -0.02460
C          2.46600        0.04420       -0.02920
N          3.24960        1.14050       -0.03310
N          4.49560        0.70240       -0.03670
H          5.34360        1.31130       -0.04020
C          4.45280       -0.64080       -0.03490
O          5.53780       -1.43640       -0.03750
N          3.18680       -1.09690       -0.03020
H          0.56310        0.98920       -0.02410
H          0.51220       -0.79060       -0.02180
H          6.42850       -1.05930       -0.04100
