16
4842	1
O          1.01560        0.06910       -0.04560
C          2.39410       -0.15560        0.02620
C          2.92910       -1.56930        0.12400
C          4.42090       -1.15030        0.14110
N          4.34710        0.32750        0.04180
C          3.25940        0.57920        1.01090
C          3.30840        0.44400       -1.00310
H          0.66370       -0.12510        0.86070
H          2.65640       -2.16750       -0.77380
H          2.60620       -2.06180        1.06800
H          4.97860       -1.58000       -0.72210
H          4.92440       -1.45940        1.08560
H          3.03620        1.67400        1.09010
H          3.36490        0.13620        2.03180
H          3.46360       -0.12770       -1.95150
H          3.09210        1.51830       -1.23760
