10
4818	1
N          1.19860        0.13630       -0.07460
C          2.60380        0.00740       -0.07990
N          3.45590        1.05000       -0.08310
O          4.64390        0.52340       -0.08760
C          4.54000       -0.78450       -0.08730
O          5.58240       -1.63340       -0.09120
N          3.25230       -1.17300       -0.08240
H          0.76400        1.07020       -0.07290
H          0.60140       -0.70290       -0.07240
H          6.48940       -1.29770       -0.09470
