12
4813	1
C          1.07880        0.16070        0.03210
C          2.56310        0.02130        0.02710
N          3.42500        1.05810        0.02620
O          4.61080        0.52740        0.02150
C          4.50140       -0.77780        0.01950
N          5.59370       -1.67060        0.01450
N          3.21200       -1.16030        0.02300
H          0.79280        1.23360        0.03490
H          0.66290       -0.32750        0.93780
H          0.65710       -0.32430       -0.87270
H          6.55750       -1.30760        0.01200
H          5.43190       -2.68780        0.01320
