15
4865	1
F          3.29640        0.32640       -0.96740
C          2.39140        0.05930        0.04290
C          2.87550       -1.13280        0.86430
C          1.92230       -1.70220        1.91610
C          2.46670       -3.08690        1.55240
F          3.60720       -3.34300        2.30150
C          2.87270       -2.50760        0.19380
H          1.39750       -0.15050       -0.40640
H          2.30690        0.95060        0.69910
H          3.87290       -0.95380        1.33260
H          0.87350       -1.63560        1.54040
H          2.00620       -1.34830        2.96560
H          1.77730       -3.95730        1.57900
H          1.99370       -2.58460       -0.48950
H          3.80340       -2.87130       -0.29100
