19
4883	1
C          0.96440        0.00560        0.28590
N          2.41610        0.02800        0.05280
C          3.11000        1.11140        0.76660
C          4.13530        0.13820        1.33480
C          5.42900        0.12790        0.49870
N          6.26770       -1.00440        0.87810
C          3.15720       -0.93820        0.87870
H          0.49430        0.86520       -0.23670
H          0.70440        0.05830        1.36690
H          0.53870       -0.92840       -0.13790
H          2.48410        1.52720        1.59260
H          3.51600        1.90180        0.09840
H          4.32300        0.21330        2.42850
H          5.98450        1.07580        0.67390
H          5.19730        0.05920       -0.58840
H          6.55590       -0.89800        1.87790
H          7.13490       -0.98560        0.29380
H          2.55020       -1.29080        1.74690
H          3.59890       -1.77550        0.29610
