19
4855	1
N          0.96460        0.18340        0.04860
C          2.41960        0.07500        0.05690
C          2.89750       -0.77880       -1.12160
C          4.38860       -1.12550       -1.17660
C          3.99220       -2.51590       -1.69500
N          3.95130       -2.55350       -3.16370
C          2.60040       -2.28190       -1.08570
H          0.67430        0.79920        0.84220
H          0.54820       -0.76170        0.21360
H          2.75970       -0.36390        1.02140
H          2.85970        1.09070       -0.04170
H          2.57930       -0.35470       -2.10100
H          4.76760       -1.25220       -0.13490
H          5.06890       -0.49010       -1.78270
H          4.57790       -3.37950       -1.31080
H          3.39990       -1.77080       -3.58180
H          3.51070       -3.45380       -3.46130
H          2.63490       -2.63010       -0.02640
H          1.70140       -2.66670       -1.61260
