16
4873	1
C          1.05670       -0.19370        0.08540
O          2.44800       -0.03130       -0.06280
C          2.82970       -0.48380       -1.34350
C          4.33410       -0.37630       -1.60310
C          4.24270       -1.72300       -2.31980
F          3.89010       -1.51420       -3.64620
C          2.98380       -2.00230       -1.50010
H          0.77000        0.16340        1.09570
H          0.76250       -1.26490        0.02430
H          0.49660        0.42630       -0.64970
H          2.28250       -0.02130       -2.20180
H          4.88420       -0.53390       -0.64430
H          4.72330        0.50390       -2.15740
H          5.09750       -2.42840       -2.24690
H          3.29400       -2.44070       -0.52150
H          2.15800       -2.57900       -1.96780
