18
4840	1
C          1.04630        0.16220       -0.11090
C          2.55760       -0.01830       -0.08270
C          3.11920       -1.42920        0.01560
C          4.60730       -1.01170        0.00520
N          4.52160        0.46110       -0.09200
C          3.44580        0.70270        0.89340
C          3.46840        0.57100       -1.12420
H          0.60170       -0.25550        0.81660
H          0.62200       -0.36730       -0.98950
H          0.79330        1.24080       -0.18050
H          2.83880       -2.04290       -0.86940
H          2.81820       -1.92310        0.96640
H          5.14990       -1.43780       -0.86940
H          5.12920       -1.31930        0.94010
H          3.22520        1.79710        0.98270
H          3.56730        0.25710        1.91210
H          3.61190       -0.00340       -2.07330
H          3.25150        1.64410       -1.36010
