19
4867	1
C          2.53250       -1.31460       -0.40920
N          2.31590        0.09100       -0.06860
C          2.91250        0.41080        1.23600
C          2.65940        1.84100        1.72540
C          2.44730        1.26860        3.13350
N          3.69970        1.24760        3.90160
C          2.15370       -0.08820        2.47590
H          2.06800       -1.52950       -1.39460
H          2.07170       -1.98330        0.35080
H          3.61980       -1.52880       -0.48660
H          1.28650        0.28080       -0.05610
H          3.99990        0.17460        1.29980
H          1.66590        2.18370        1.35150
H          3.44320        2.61130        1.56420
H          1.63710        1.72770        3.74210
H          4.48890        0.79640        3.38700
H          3.53940        0.70970        4.78360
H          1.06200       -0.12090        2.25010
H          2.49610       -1.01870        2.97640
