10
4787	1
O          0.98850        0.05000       -0.08000
C          2.33370        0.07420       -0.07770
N          3.06330        1.20950       -0.07400
C          4.34020        0.78060       -0.07270
F          5.41950        1.59950       -0.06920
C          4.36580       -0.59610       -0.07560
N          3.09690       -1.03440       -0.07870
H          2.77250       -2.02670       -0.08130
H          0.47930        0.87230       -0.07920
H          5.24080       -1.23250       -0.07540
