19
4875	1
C          0.93150       -0.03480        0.23600
C          2.45290        0.05730        0.08620
C          3.12430        1.20840        0.81850
C          4.09790        0.12840        1.27340
C          5.41490        0.12990        0.47530
N          6.21430       -1.04240        0.81590
N          3.22010       -0.95980        0.81940
H          0.45490        0.82920       -0.27260
H          0.63430       -0.02980        1.30640
H          0.56840       -0.97310       -0.23300
H          2.76780        0.03230       -0.98310
H          2.50940        1.50630        1.69700
H          3.50750        2.05030        0.20250
H          4.29060        0.13640        2.37130
H          5.98730        1.05330        0.71490
H          5.21000        0.12250       -0.61800
H          6.47940       -0.99460        1.82670
H          7.09670       -1.01600        0.25550
H          2.66680       -1.26710        1.65530
