16
4833	1
N          1.05230        0.05370       -0.08250
C          2.49800       -0.12710       -0.02480
C          3.06040       -1.52090        0.10060
O          4.43950       -1.21040        0.11790
C          4.37780        0.20380        0.00590
C          3.30250        0.61000        1.01850
C          3.36670        0.44340       -1.11960
H          0.62680       -0.35140        0.78210
H          0.68000       -0.46490       -0.91020
H          2.80290       -2.15440       -0.77730
H          2.74820       -2.01210        1.04920
H          5.37560        0.69110       -0.00240
H          3.10280        1.70840        1.02560
H          3.36720        0.18730        2.04700
H          3.49010       -0.13340       -2.06440
H          3.17260        1.52640       -1.30860
