13
4945	1
O          1.05990        0.21220        0.37350
C          2.26450        0.13890        0.19250
C          2.87820        0.74890       -1.03580
C          2.81860        2.30590       -1.06360
C          4.27110        2.18690       -1.13360
O          5.11920        3.06300       -1.19230
C          4.43740        0.73960       -1.05070
H          2.88430       -0.37400        0.92090
H          2.47710        0.32160       -1.98290
H          2.55330        2.81120       -0.10960
H          2.41310        2.74920       -1.99790
H          4.94780        0.50100       -0.09250
H          4.90160        0.34430       -1.97930
