18
4902	1
C          0.99820        0.04430        0.28990
C          2.51920        0.06710        0.11180
C          3.26800        1.11580        0.91860
C          4.19520       -0.04800        1.24950
N          3.24360       -1.04590        0.74200
C          5.45310       -0.05520        0.41170
C          6.40840        0.85900        0.59970
H          0.55970        0.97030       -0.13740
H          0.72290       -0.02080        1.36420
H          0.57510       -0.83310       -0.24250
H          2.81450        0.11250       -0.96280
H          2.69280        1.36410        1.83830
H          3.67110        1.99210        0.36640
H          4.43410       -0.15470        2.33280
H          2.69430       -1.38450        1.56860
H          5.58990       -0.81730       -0.35060
H          6.29840        1.62830        1.35840
H          7.30740        0.83800       -0.00760
