19
4965	1
C          0.25620       -0.02660        0.20340
C          1.78130       -0.18520        0.19460
C          2.32110       -0.15480        1.62410
O          2.15210       -1.41970       -0.39020
C          2.25660       -1.26590       -1.78660
C          2.48250       -2.64850       -2.37980
C          1.16610       -1.93830       -2.61210
H         -0.02790        0.92720        0.69700
H         -0.21930       -0.87110        0.74670
H         -0.13500       -0.00140       -0.83440
H          2.24230        0.68640       -0.33170
H          1.89720       -0.99260        2.21860
H          2.06020        0.80620        2.11720
H          3.42750       -0.25310        1.61040
H          3.13630       -0.70280       -2.16880
H          2.21000       -3.55840       -1.80270
H          2.92780       -2.74600       -3.39290
H          0.31720       -2.12400       -1.91990
H          1.04210       -1.26850       -3.48910
