16
4929	1
C          1.05350        0.05350        0.03750
N          2.51870        0.05170       -0.05740
C          3.17850        1.08440        0.75830
C          4.19510        0.07200        1.27240
C          3.17720       -0.95480        0.78960
C          5.38160        0.06280        0.39340
C          6.35200        0.05280       -0.32360
H          0.65300        0.90770       -0.54840
H          0.69200        0.13230        1.08610
H          0.65640       -0.88270       -0.40890
H          2.52540        1.40460        1.60740
H          3.57480        1.95410        0.19050
H          4.47340        0.08580        2.34740
H          2.51870       -1.24830        1.64450
H          3.57320       -1.84090        0.24720
H          7.20280        0.04650       -0.95410
