16
4927	1
C          1.07120       -0.03010        0.12620
C          2.59890        0.04850        0.09750
C          3.26900        1.14630        0.91260
C          4.23250        0.02650        1.30000
N          3.30460       -1.01320        0.83080
C          5.44060        0.00440        0.44680
C          6.42810       -0.02180       -0.24530
H          0.64050        0.80980       -0.45860
H          0.68610        0.01110        1.16570
H          0.74650       -0.98470       -0.34100
H          2.97930        0.05320       -0.95110
H          2.64680        1.37380        1.80920
H          3.65350        2.05410        0.40120
H          4.50710       -0.02590        2.37780
H          2.72310       -1.29520        1.65700
H          7.28840       -0.06150       -0.86120
