14
4926	1
F          0.90770       -0.07640        0.07120
C          2.29080       -0.07650       -0.01200
C          3.00180        0.98940        0.82290
C          4.02570       -0.07740        1.23110
C          3.00010       -1.14220        0.82520
C          5.20560       -0.08730        0.33990
C          6.17560       -0.07550       -0.37820
H          2.68510       -0.07710       -1.05130
H          2.37890        1.22880        1.71690
H          3.34680        1.91090        0.30450
H          4.35460       -0.07560        2.29150
H          2.37800       -1.38050        1.71920
H          3.34570       -2.06310        0.30640
H          7.02650       -0.06700       -1.00950
