17
4905	1
C          0.94990       -0.03410        0.44810
C          2.35020        0.21730       -0.11270
C          3.16340        1.22250        0.68010
C          4.00320       -0.00000        1.00090
O          3.22100       -0.84610        0.19220
C          5.42580        0.08230        0.51470
C          6.29730        0.92100        1.08040
H          0.32260        0.87120        0.30790
H          0.99500       -0.28090        1.53080
H          0.48090       -0.88290       -0.09220
H          2.35430        0.43660       -1.20400
H          2.65530        1.63430        1.57960
H          3.67180        1.93830       -0.00380
H          3.91500       -0.30970        2.06710
H          5.75060       -0.55290       -0.30430
H          5.99540        1.56330        1.90240
H          7.31970        0.96630        0.71970
