17
4923	1
C          1.02980        0.01410       -0.02660
C          2.54530        0.01220       -0.00810
C          3.25570        1.08850        0.82980
C          4.30030        0.02620        1.22200
C          3.25400       -1.04420        0.85430
C          5.50380        0.01730        0.35940
C          6.44180       -0.00200       -0.39700
H          0.65190        0.84730       -0.63580
H          0.62240        0.11640        0.98710
H          0.64810       -0.92160       -0.45860
H          2.93840       -0.00480       -1.05290
H          2.66100        1.40840        1.72050
H          3.59530        1.98190        0.30730
H          4.59900        0.03400        2.27000
H          2.65560       -1.34670        1.74820
H          3.59100       -1.95010        0.34770
H          7.32850        0.02390       -0.97950
