13
4901	1
F          0.87700       -0.08490        0.19340
C          2.26030       -0.08640        0.10130
C          2.97470        0.98170        0.93200
C          3.99940       -0.08130        1.33790
C          2.97540       -1.15150        0.93200
C          5.17060       -0.08210        0.43980
N          6.08990       -0.08560       -0.26300
H          2.65130       -0.08560       -0.93900
H          2.35810        1.21900        1.82850
H          3.32120        1.89950        0.40980
H          4.33690       -0.08580        2.39450
H          2.35710       -1.39060        1.82970
H          3.32110       -2.07330        0.40880
