15
4915	1
O          0.94340       -0.00020        0.18370
C          2.31840        0.02920       -0.07680
C          3.07770        1.11080        0.74640
N          3.78400        0.04760        1.36910
C          3.08800       -1.03320        0.75790
C          5.19880        0.07850        1.55470
N          5.86960       -0.99820        1.76490
H          0.58260        0.84600       -0.18700
H          2.60540       -0.00580       -1.15100
H          2.44800        1.62440        1.50500
H          3.73900        1.76880        0.14050
H          2.46610       -1.54720        1.52270
H          3.74960       -1.68890        0.15030
H          5.71880        1.03130        1.55100
H          5.41600       -1.92220        1.80030
