12
4957	1
O          1.39650       -0.10000        0.87220
C          2.48780        0.02730        0.34100
C          3.35240        1.19790        0.04260
C          4.26220        0.00550       -0.56900
N          3.24170       -0.90650       -0.15220
C          4.36470        0.02050       -2.03570
C          4.43010        0.00950       -3.23910
H          3.69530        1.63710        1.00370
H          2.84510        1.86640       -0.68550
H          5.22240       -0.18070       -0.03920
H          3.12160       -1.92760       -0.21950
H          4.47630       -0.01430       -4.29580
