17
4982	1
C          2.55730       -0.48840       -1.78670
C          2.36650        0.27430       -0.47630
F          1.01080        0.39220       -0.22160
C          3.03470       -0.43020        0.71050
N          4.49970       -0.48450        0.52450
C          5.12820       -1.32960        1.56620
C          5.00330       -1.84200        0.20150
H          2.03830        0.04910       -2.60850
H          2.13120       -1.51090       -1.70510
H          3.63460       -0.56070       -2.04540
H          2.79260        1.29520       -0.58580
H          2.56040       -1.42830        0.85950
H          2.82200        0.17130        1.62160
H          4.41050       -1.72050        2.32310
H          6.11860       -0.90980        1.83980
H          4.19390       -2.56940       -0.02610
H          5.91020       -1.75600       -0.43250
