12
4946	1
O          1.27610       -0.05580        0.01150
C          2.44190       -0.05570        0.37700
C          3.36930        1.04740        0.06130
C          4.29630       -0.05570       -0.50760
C          3.36940       -1.15880        0.06140
C          4.25310       -0.05540       -1.98450
N          4.22080       -0.05250       -3.14150
H          3.71500        1.46910        1.02960
H          2.99710        1.80010       -0.66920
H          5.34140       -0.05560       -0.13210
H          3.71510       -1.58030        1.02980
H          2.99730       -1.91170       -0.66890
