15
4936	1
N          2.25000       -1.09550        0.90550
C          2.42040        0.07660        0.05330
C          3.21090        1.16570        0.78800
C          3.22610        2.60000        0.03710
C          2.45700        2.94890        1.26030
O          1.95180        3.98190        1.66960
N          2.45440        1.78500        1.83450
H          1.76350       -1.83800        0.35310
H          1.63140       -0.84760        1.71130
H          1.42510        0.45990       -0.26630
H          2.99240       -0.21550       -0.85350
H          4.20700        0.83360        1.15750
H          2.56290        2.71470       -0.84700
H          4.19350        3.14500        0.04050
H          2.05550        1.45790        2.72620
