17
4994	1
C          5.46570        0.12230        2.31420
C          4.15820        0.04190        1.56050
C          3.01810        0.42010        2.14990
O          4.11120       -0.41480        0.28180
C          5.22730       -0.81700       -0.42250
C          5.25120       -2.28170       -0.83300
C          4.77420       -1.22730       -1.81330
H          5.33030        0.51080        3.34650
H          6.16370        0.79920        1.77910
H          5.91750       -0.88960        2.38020
H          3.00960        0.78990        3.17080
H          2.07860        0.36110        1.60890
H          6.01160       -0.05410       -0.61830
H          4.52430       -2.79210       -0.16420
H          6.32770       -2.55140       -0.78980
H          3.71230       -1.49240       -2.00590
H          5.51350       -1.26460       -2.64170
