17
5048	1
O          1.04460        0.06070       -0.05520
C          2.44900        0.03570       -0.05920
C          2.96230       -1.36750       -0.41320
C          2.55890       -1.70900       -1.84950
C          3.06420       -0.59970       -2.78320
O          2.51810        0.65660       -2.41450
C          2.96700        1.02240       -1.11900
H          0.75360       -0.38960        0.78040
H          2.83040        0.34810        0.94040
H          2.56590       -2.12460        0.29690
H          4.07290       -1.37540       -0.34040
H          1.45110       -1.77090       -1.92430
H          2.98670       -2.69080       -2.14520
H          2.74170       -0.83440       -3.81930
H          4.17740       -0.55770       -2.79570
H          2.58160        2.03730       -0.88440
H          4.07880        1.09320       -1.09420
