19
5057	1
C          0.96600        0.01790        0.02440
C          2.49200       -0.04510       -0.16720
C          3.01850       -1.46230       -0.48080
C          2.64740       -1.86850       -1.90610
C          3.17650       -0.80010       -2.85930
C          2.60890        0.56580       -2.45290
O          2.95890        0.90890       -1.11810
H          0.66240       -0.66870        0.84310
H          0.40540       -0.27320       -0.88510
H          0.66870        1.05000        0.30620
H          2.92480        0.23600        0.81750
H          2.63490       -2.20130        0.25540
H          4.12850       -1.44790       -0.40270
H          1.54440       -1.95270       -2.00810
H          3.09130       -2.85690       -2.15200
H          2.88970       -1.04190       -3.90510
H          4.28670       -0.76450       -2.79790
H          1.50950        0.60840       -2.60130
H          3.03870        1.33200       -3.13170
