15
5006	1
N          2.56640        0.68980        1.23950
C          2.56540       -0.28210        0.20290
N          1.98380       -1.41530        0.38010
C          3.23310        0.01240       -1.11270
C          4.73560        0.22660       -0.91780
C          5.40160        1.11880       -1.89440
O          5.06450        1.54510       -0.58490
H          2.10890        0.49450        2.14180
H          3.01500        1.60560        1.09610
H          1.51480       -1.64280        1.26920
H          2.74820        0.90250       -1.57030
H          3.09940       -0.84650       -1.80570
H          5.38130       -0.52440       -0.41550
H          4.79140        1.72100       -2.60010
H          6.50940        1.09570       -1.95580
