20
5063	1
C          0.89410        0.00420        0.16960
N          2.35140       -0.05050       -0.03660
C          2.83810       -1.40790       -0.37030
C          2.48060       -1.81920       -1.81010
C          3.03330       -0.78720       -2.79580
C          2.48000        0.59860       -2.45580
C          2.83750        0.96000       -1.00270
H          0.59760       -0.70780        0.96900
H          0.32780       -0.24180       -0.75090
H          0.59720        1.01970        0.50760
H          2.43330       -2.15360        0.34830
H          3.94500       -1.42430       -0.26060
H          1.37870       -1.89240       -1.92520
H          2.91070       -2.81930       -2.03260
H          2.75350       -1.06470       -3.83470
H          4.14370       -0.76860       -2.72750
H          1.37800        0.60410       -2.59190
H          2.90960        1.35480       -3.14730
H          2.43220        1.96450       -0.75140
H          3.94440        1.02950       -0.91590
