17
5050	1
C          0.93440        0.05160       -0.04250
C          2.46900        0.03320       -0.11350
C          2.98530       -1.34770       -0.53450
O          2.57200       -1.64090       -1.85490
C          3.09510       -0.66010       -2.73670
O          2.57150        0.62820       -2.45470
C          2.98480        1.02590       -1.16190
H          0.58100       -0.67830        0.71650
H          0.47820       -0.20740       -1.02190
H          0.58060        1.06110        0.25680
H          2.86220        0.29910        0.89210
H          2.59110       -2.12380        0.15560
H          4.09650       -1.39650       -0.46210
H          2.78040       -0.93200       -3.76500
H          4.21040       -0.66580       -2.75910
H          2.59020        2.04140       -0.94550
H          4.09590        1.10440       -1.12320
