20
5031	1
N          0.99480       -0.01640        0.20310
C          2.45680       -0.06210        0.07910
C          2.96490       -1.47200       -0.30330
C          2.57020       -1.85070       -1.74130
C          3.10410       -0.80400       -2.73120
C          2.57320        0.59580       -2.38520
C          2.96620        0.97420       -0.94600
H          0.68810       -0.69050        0.94060
H          0.50930       -0.26360       -0.68510
H          2.87520        0.20380        1.07520
H          2.58050       -2.22810        0.41460
H          4.07550       -1.47770       -0.23650
H          1.46670       -1.92520       -1.83320
H          2.99360       -2.84700       -1.99130
H          2.80080       -1.07570       -3.76490
H          4.21570       -0.79420       -2.68850
H          1.46980        0.61730       -2.50410
H          2.99920        1.33900       -3.09280
H          2.57930        1.98450       -0.69280
H          4.07650        1.01190       -0.88950
