17
4990	2
C          3.31050       -0.66520        1.43590
C          2.68080       -0.15080        0.16120
N          1.43290       -0.36560       -0.06860
N          3.45630        0.53160       -0.82470
C          4.86440        0.82950       -0.64820
C          5.10870        2.28740       -1.03760
C          5.20710        1.87660        0.41090
H          2.57300       -1.20790        2.06450
H          3.71440        0.16480        2.04550
H          4.13240       -1.36730        1.18400
H          0.83510       -0.86830        0.60390
H          3.01620        0.75410       -1.73120
H          5.56770        0.28680       -1.31450
H          4.25960        3.00390       -1.08050
H          6.13440        2.61920       -1.30620
H          4.32040        2.07310        1.04860
H          6.18020        1.54970        0.83430
