16
5016	2
C          3.85910       -1.29990        0.56710
C          2.72100       -0.42160        0.11500
N          1.50430       -0.74120        0.38510
N          2.98370        0.77220       -0.61110
N          4.30130        1.12410       -0.93060
C          4.34610        2.39450       -1.69480
C          4.62850        2.40510       -0.26260
H          3.49650       -2.19060        1.12270
H          4.53030       -0.71980        1.23450
H          4.43460       -1.64690       -0.31620
H          1.27280       -1.59730        0.91030
H          2.18130        1.35700       -0.89840
H          3.35230        2.76340       -2.02820
H          5.23510        2.40100       -2.35930
H          3.82400        2.74450        0.42870
H          5.69970        2.39880        0.02810
