16
5021	1
C          0.93190        0.00450       -0.08780
C          2.42630       -0.13010       -0.08760
F          2.97280       -1.33680        0.22370
C          3.21820        0.91580       -0.38340
C          4.72250        0.80430       -0.38050
C          5.16560       -0.22520       -1.41770
C          5.46350        1.24530       -1.63650
H          0.54260       -0.24010        0.92230
H          0.50120       -0.70620       -0.82330
H          0.60370        1.03210       -0.35450
H          2.77660        1.88020       -0.61810
H          5.24070        0.50970        0.55710
H          4.51410       -0.49540       -2.27720
H          6.16640       -0.69730       -1.32130
H          4.75690        1.86630       -2.22940
H          6.41290        1.68020       -1.25810
