15
5001	2
N          2.48800       -0.69800       -1.45900
C          2.38330        0.07090       -0.34970
O          1.70290        1.08550       -0.37940
C          3.08770       -0.31370        0.92440
C          4.61380       -0.30410        0.72980
C          5.38770       -1.08460        1.68880
N          5.21380       -1.57620        0.29660
H          2.00030       -0.42870       -2.32640
H          3.04960       -1.56090       -1.45180
H          2.71200       -1.30180        1.26880
H          2.84650        0.43040        1.71450
H          5.14000        0.59080        0.33550
H          4.88370       -1.79090        2.38720
H          6.45670       -0.81580        1.81820
H          4.50150       -2.34180        0.31450
