13
5110	1
N          1.28780       -0.01790        0.46330
C          2.35550       -0.04260       -0.24960
N          3.06030       -1.26210       -0.47910
O          4.10490       -1.29560       -1.34100
C          4.88760       -0.14310       -1.10750
C          4.06440        1.11790       -1.44120
O          2.83920        1.09990       -0.79200
H          0.90930       -0.87840        0.88560
H          2.73410       -2.13910       -0.04750
H          5.80280       -0.17210       -1.73520
H          5.21770       -0.12410       -0.04310
H          3.87720        1.17580       -2.53460
H          4.64290        2.01410       -1.13300
