12
5163	1
O          0.97620        0.08240       -0.11120
C          2.19690        0.04660       -0.09500
C          2.96790        1.33230       -0.08480
O          4.34270        1.16000       -0.06630
N          4.97650       -0.00520       -0.05820
C          4.37940       -1.14760       -0.06650
C          2.88850       -1.27720       -0.08610
H          2.67470        1.91710        0.81230
H          2.69910        1.91670       -0.98980
H          4.97730       -2.05280       -0.05900
H          2.57030       -1.84520        0.81370
H          2.59400       -1.84480       -0.99410
