12
5181	2
N          0.85810       -0.10430        0.05220
C          2.14310       -0.07510        0.05380
C          2.88500        1.23310        0.03950
O          4.26190        1.05930        0.04360
C          4.90660       -0.14090        0.05860
N          4.25640       -1.25470        0.07080
N          2.88120       -1.28280        0.06910
H          0.30490        0.76550        0.04120
H          2.59810        1.82370        0.93490
H          2.60070        1.80250       -0.87040
H          5.99070       -0.15880        0.06050
H          2.39140       -2.18940        0.07900
