14
5146	1
C          0.85470       -0.01970        0.36070
C          2.28420       -0.06700       -0.16950
C          2.72390        1.26070       -0.79450
O          3.97700        1.08110       -1.35740
C          4.28370       -0.07460       -2.01050
N          3.50010       -1.09890       -1.90650
O          2.41100       -1.03950       -1.14870
H          0.76510        0.76010        1.14660
H          0.58510       -1.00240        0.80240
H          0.14350        0.21050       -0.46120
H          2.98030       -0.30700        0.66510
H          2.74700        2.08570       -0.05140
H          2.01130        1.53080       -1.60540
H          5.19110       -0.14210       -2.60020
