11
5105	1
O          1.54720        0.07380        0.95180
C          2.44970        0.04050        0.12890
N          2.95660       -1.14140       -0.29810
O          3.94420       -1.17930       -1.22660
C          4.75700       -0.02570       -1.07660
O          3.98540        1.14850       -1.27570
N          2.99770        1.18480       -0.34720
H          2.57520       -2.02670        0.06730
H          5.54760       -0.05610       -1.85410
H          5.27620       -0.01410       -0.09050
H          2.64810        2.09760       -0.01970
