12
5173	3
O          0.98110       -0.17580       -0.06890
C          2.20210       -0.13720       -0.05930
C          2.89910        1.19460       -0.06530
N          4.34460        1.06190       -0.05230
N          4.98030       -0.16280       -0.03630
C          4.32980       -1.27400       -0.03180
N          2.91200       -1.28970       -0.04330
H          2.58300        1.76990        0.83070
H          2.59780        1.75400       -0.97630
H          4.91760        1.91800       -0.05510
H          4.87580       -2.21140       -0.01910
H          2.42060       -2.19630       -0.03930
