14
5129	1
F          1.44190        0.07570        0.97150
C          2.56860        0.03310        0.16960
C          2.64410        1.24680       -0.74940
O          3.80430        1.15770       -1.50360
C          4.18350       -0.00070       -2.11370
C          3.61720       -1.17530       -1.77630
C          2.57060       -1.24520       -0.68670
H          3.47500        0.04590        0.81500
H          2.65240        2.19170       -0.16650
H          1.75960        1.25370       -1.42420
H          4.94490        0.02770       -2.88610
H          3.89210       -2.07830       -2.31230
H          2.76800       -2.10420       -0.01060
H          1.58860       -1.40400       -1.18180
