14
5150	1
C          1.24090       -0.04800       -0.26240
C          2.70820       -0.08290        0.18360
O          3.40690        1.08850       -0.20490
C          3.65830        1.14320       -1.60690
C          3.89860       -0.20470       -2.24680
N          3.75090       -1.27700       -1.55440
O          3.35550       -1.20770       -0.29650
H          0.74000        0.84660        0.16420
H          0.71730       -0.95710        0.10200
H          1.15300       -0.01440       -1.36820
H          2.71080       -0.13790        1.29270
H          4.58220        1.74020       -1.75290
H          2.82430        1.66350       -2.12360
H          4.18590       -0.26930       -3.29080
