13
5112	1
O          1.31000        0.09460        0.82130
C          2.27090        0.04870        0.07190
O          2.86290       -1.14420       -0.19800
C          3.85270       -1.24710       -1.15770
C          4.77270       -0.03550       -1.04780
C          3.91640        1.22620       -1.24470
O          2.76500        1.19620       -0.46830
H          3.38920       -1.26820       -2.16870
H          4.41740       -2.19140       -1.00970
H          5.59640       -0.06960       -1.79240
H          5.21360       -0.02760       -0.02650
H          3.60760        1.31600       -2.30850
H          4.52600        2.11750       -0.98640
