16
5130	1
C          0.99220       -0.03250        0.55660
C          2.43830       -0.06910        0.05790
C          2.79080        1.14300       -0.79780
O          4.12740        1.03180       -1.14130
N          4.63150       -0.09120       -1.63990
C          4.02870       -1.22950       -1.51170
C          2.71860       -1.34090       -0.76520
H          0.82160        0.88240        1.16300
H          0.78670       -0.91910        1.19350
H          0.28300       -0.03180       -0.29880
H          3.12030       -0.05510        0.93860
H          2.63150        2.09260       -0.24410
H          2.16580        1.15430       -1.71830
H          4.43500       -2.10520       -2.00640
H          2.73590       -2.20790       -0.07060
H          1.93060       -1.51500       -1.52980
