19
5219	1
C          0.85480       -0.02860       -0.10440
C          2.36640       -0.10980        0.14430
C          3.11730        1.16520       -0.30880
C          3.29480        1.17130       -1.82130
C          4.16600       -0.02430       -2.23710
C          3.74270       -1.31860       -1.58060
C          2.91250       -1.35930       -0.52050
H          0.43100        0.86170        0.40700
H          0.35330       -0.93180        0.30490
H          0.62180        0.03610       -1.18730
H          2.51980       -0.18470        1.24310
H          4.13370        1.17740        0.14490
H          2.58120        2.07180        0.04630
H          3.77550        2.11100       -2.16850
H          2.29710        1.10390       -2.30350
H          5.23110        0.14580       -1.96980
H          4.09640       -0.11640       -3.34190
H          4.13680       -2.25050       -1.97420
H          2.61960       -2.32660       -0.12280
