12
5204	1
N          0.96680       -0.01570        0.07770
C          2.25030        0.03130        0.07030
N          2.92970        1.27610        0.05340
C          4.37490        1.32630        0.04510
C          5.00090       -0.04750        0.05650
N          4.28980       -1.12690        0.07190
O          2.96440       -1.11680        0.07890
H          0.40060        0.84550        0.07150
H          2.39570        2.15810        0.04680
H          4.72230        1.88310        0.94060
H          4.71270        1.86380       -0.86580
H          6.08270       -0.12780        0.05160
