14
5276	2
N          0.93360       -0.01040       -0.15040
C          2.20440       -0.00310        0.03670
N          2.93900        1.21900        0.08110
N          4.26060        1.21860        0.54340
C          4.97970        0.10720       -0.09450
C          4.28840       -1.20970        0.20710
C          2.94790       -1.26150        0.21850
H          0.40940        0.86840       -0.27460
H          2.49180        2.10910       -0.18240
H          4.24030        1.03340        1.57380
H          6.04150        0.07260        0.22930
H          4.96490        0.27070       -1.19470
H          4.87350       -2.10520        0.39110
H          2.42890       -2.20220        0.37650
