17
5247	1
C          0.95050       -0.03190        0.01710
N          2.39040        0.07160        0.12510
C          3.04460        1.35890       -0.08380
C          4.51190        1.31890        0.36370
C          5.16260        0.06410       -0.19830
N          4.44390       -1.10240        0.27620
C          3.15680       -1.10830        0.39150
H          0.49260        0.95460       -0.21160
H          0.52860       -0.40250        0.97510
H          0.68550       -0.73900       -0.79730
H          2.54390        2.15180        0.51360
H          2.96230        1.62210       -1.16070
H          4.55550        1.25450        1.47380
H          5.04100        2.24170        0.04300
H          6.22550       -0.00390        0.11510
H          5.12460        0.09520       -1.30940
H          2.65480       -2.02710        0.67880
