12
5213	1
O          0.89980        0.03440       -0.07860
C          2.12040        0.01660       -0.07440
N          2.78120       -1.16660       -0.08240
C          4.19890       -1.19400       -0.07750
C          4.89630       -0.05330       -0.06500
C          4.19480        1.28390       -0.05580
O          2.80890        1.18760       -0.06170
H          2.25660       -2.05430       -0.09200
H          4.72010       -2.14640       -0.08400
H          5.98140       -0.08580       -0.06140
H          4.51460        1.85720       -0.95070
H          4.50810        1.84140        0.85130
