9
5218	1
O          0.97280       -0.02740        0.09330
C          2.19230       -0.01730        0.09460
O          2.86780        1.15580        0.08880
N          4.18990        1.15010        0.09040
C          4.88890       -0.08720        0.09820
N          4.21770       -1.18960        0.10360
O          2.88950       -1.18340        0.10200
H          4.70920        2.03940        0.08600
H          5.97350       -0.10730        0.09960
