11
5190	1
O          1.04070       -0.13360        0.04890
C          2.26040       -0.09430        0.05110
C          2.97150        1.23640        0.03400
O          4.35340        1.09620        0.03900
C          5.00750       -0.09630        0.05720
C          4.32590       -1.24990        0.07180
O          2.97080       -1.24760        0.06880
H          2.66840        1.82100        0.92790
H          2.67240        1.79570       -0.87720
H          6.09240       -0.11070        0.05980
H          4.86020       -2.19420        0.08620
