17
5236	1
N          1.08080       -0.00120        0.34940
C          2.50110        0.06210        0.00620
C          2.75330        1.31420       -0.85670
N          4.10420        1.28340       -1.41380
C          4.25410        0.16520       -2.36220
C          3.67810       -1.13550       -1.84250
C          2.90880       -1.18660       -0.74230
H          0.82400        0.84690        0.90560
H          0.91000       -0.83270        0.96110
H          3.10150        0.09920        0.94280
H          2.61020        2.23080       -0.24490
H          2.02220        1.35280       -1.69660
H          4.78990        1.17310       -0.62910
H          5.34040        0.02090       -2.54640
H          3.77600        0.40990       -3.33450
H          3.90700       -2.05530       -2.37180
H          2.57540       -2.15370       -0.37720
