15
5251	1
N          1.06040       -0.03220       -0.11260
N          2.45130        0.05520       -0.06780
C          3.10110        1.33710        0.19640
C          4.55840        1.28170       -0.25070
N          5.15220        0.07820        0.27360
N          4.49960       -1.12240        0.10560
C          3.22580       -1.15130       -0.10810
H          0.63600        0.91800       -0.00810
H          0.74410       -0.61490        0.69610
H          3.02140        1.55950        1.28220
H          2.60750        2.15360       -0.37410
H          5.13240        2.18730        0.04080
H          4.56150        1.20280       -1.36000
H          6.06360        0.10880        0.75260
H          2.73000       -2.10730       -0.24230
