11
5206	2
N          0.95530       -0.01000        0.10650
C          2.23280        0.03150        0.00050
N          2.89060        1.22340       -0.05470
N          4.21750        1.24590       -0.16480
C          4.91190        0.08590       -0.22170
N          4.23470       -1.08760       -0.16490
O          2.92640       -1.09850       -0.05640
H          0.39080        0.85140        0.15280
H          2.36620        2.12610       -0.01170
H          5.99020        0.09730       -0.31110
H          4.75620       -1.99090       -0.20760
