17
5239	1
C          1.01440        0.05490        0.34330
C          2.51660        0.05020        0.04530
C          2.88520        1.29960       -0.77540
O          4.22940        1.22330       -1.18840
C          4.38930        0.19770       -2.16010
C          3.73640       -1.11420       -1.77180
C          2.90140       -1.18820       -0.72540
H          0.74330        0.96060        0.92680
H          0.74130       -0.83900        0.94410
H          0.42420        0.04400       -0.59870
H          3.06740        0.03550        1.01080
H          2.73860        2.21220       -0.15950
H          2.22340        1.41020       -1.66750
H          5.47920       -0.00030       -2.22870
H          4.04380        0.53200       -3.16210
H          3.96770       -2.01060       -2.33890
H          2.50200       -2.15370       -0.42810
