10
5351	1
N          1.08980       -0.02360        0.07250
C          2.37000        0.01360        0.07340
N          3.01970        1.20690        0.07230
C          4.37410        1.22880        0.07330
N          5.06520        0.06390        0.07540
C          4.38930       -1.11200        0.07650
O          3.06190       -1.11930        0.07550
H          0.53180        0.84350        0.07090
H          4.90160        2.17280        0.07250
H          4.93340       -2.04650        0.07810
