9
5325	2
O          1.08710       -0.04440        0.06920
C          2.43430       -0.01040        0.07050
C          3.12620        1.19710        0.07170
N          4.47980        1.17390        0.07290
N          5.13530        0.01370        0.07310
N          4.47260       -1.14370        0.07200
N          3.14020       -1.16580        0.07070
H          0.55840        0.76640        0.06910
H          2.59920        2.14230        0.07160
