9
5346	1
O          1.13670       -0.11660       -0.28730
C          2.33320       -0.08550       -0.06380
C          2.99730        1.13280        0.03050
C          4.35970        1.11340        0.28630
N          4.98660       -0.07770        0.43330
N          4.30000       -1.21670        0.33280
O          3.00830       -1.21750        0.09070
H          2.47050        2.07150       -0.09150
H          4.91780        2.03650        0.36810
