9
5359	1
N          1.04990        0.03270       -0.06520
C          2.33010        0.06660       -0.06450
N          2.98400        1.25470       -0.06510
C          4.33600        1.26500       -0.06440
N          5.00940        0.09220       -0.06310
N          4.33290       -1.05480       -0.06250
O          3.02060       -1.06520       -0.06320
H          0.49420        0.90120       -0.06620
H          4.87420        2.20290       -0.06490
