10
5341	1
O          1.10120       -0.07360        0.25680
C          2.31290       -0.03140        0.14450
C          2.96550        1.19930        0.06340
C          4.35050        1.19720       -0.06400
N          5.01730        0.01630       -0.10530
C          4.33760       -1.15810       -0.02270
O          3.01280       -1.16110        0.09940
H          2.41450        2.13130        0.09830
H          4.89490        2.12970       -0.13010
H          4.87650       -2.09490       -0.05630
