17
5363	1
C          1.01150       -0.04470       -0.35510
C          2.51410       -0.03910       -0.06640
C          2.87530        1.22780        0.67470
C          3.45250        1.22630        1.88360
C          3.80300       -0.03840        2.61890
C          3.46290       -1.30340        1.87930
C          2.88570       -1.30550        0.67030
H          0.72870        0.85420       -0.94400
H          0.43120       -0.04870        0.59340
H          0.73610       -0.94400       -0.94710
H          3.06200       -0.03520       -1.03300
H          2.65570        2.18220        0.20420
H          3.68070        2.17670        2.35660
H          3.26550       -0.04220        3.59020
H          4.89550       -0.03420        2.81590
H          3.69890       -2.25340        2.34910
H          2.67400       -2.26000        0.19660
