15
5295	1
C          0.90800       -0.06420        0.11420
C          2.43660       -0.07250        0.10090
N          2.92190        1.12430       -0.57710
N          3.72390        1.07450       -1.70080
C          4.10830       -0.03870       -2.22040
C          3.70740       -1.32170       -1.62900
C          2.92930       -1.34630       -0.54570
H          0.53680        0.84990        0.62480
H          0.52150       -0.95020        0.66240
H          0.51110       -0.08010       -0.92390
H          2.80440       -0.05650        1.14940
H          2.65820        2.04670       -0.20040
H          4.73890       -0.02940       -3.10280
H          4.04720       -2.25070       -2.07570
H          2.64350       -2.30320       -0.11830
