13
5300	1
N          1.01540       -0.11080       -0.06710
N          2.40840       -0.05190       -0.05690
C          3.08650        1.23510       -0.07140
C          4.58550        1.09400       -0.06180
N          5.15660       -0.06270       -0.04890
N          4.44080       -1.24310       -0.04310
C          3.15310       -1.26380       -0.04620
H          0.61480        0.85590       -0.08090
H          0.70340       -0.57730        0.81560
H          2.78210        1.81910        0.82300
H          2.79180        1.79290       -0.98520
H          5.19890        1.98880       -0.06720
H          2.63540       -2.21770       -0.04280
