15
5372	1
C          0.89100        0.00270       -0.13730
N          2.31410        0.03110        0.12920
C          3.00770        1.26920        0.22530
C          4.32040        1.28680        0.47150
C          5.10010        0.00770        0.65340
N          4.29160       -1.19640        0.53470
C          3.02330       -1.19210        0.29620
H          0.47510        1.02760       -0.24370
H          0.36380       -0.50370        0.69880
H          0.69780       -0.55270       -1.07950
H          2.47640        2.20850        0.09960
H          4.83940        2.23780        0.54280
H          5.57080        0.02110        1.65850
H          5.90350       -0.02770       -0.11160
H          2.49540       -2.13810        0.22300
