10
5383	2
O          0.98980        0.07990        0.01440
C          2.33790        0.10400        0.01610
C          3.04130        1.30740        0.01870
N          4.39760        1.28550        0.02030
N          5.06290        0.12890        0.01940
N          4.41680       -1.03860        0.01680
C          3.06100       -1.08330        0.01510
H          0.46740        0.89480        0.01510
H          2.51720        2.25420        0.01960
H          2.55120       -2.03790        0.01310
