13
5292	1
O          1.14960       -0.10970        0.61740
C          2.41110       -0.04560        0.01000
C          2.54650        1.17690       -0.90070
C          3.90220        1.07540       -1.55760
N          4.32340       -0.08050       -1.96330
N          3.56640       -1.22500       -1.76370
C          2.63670       -1.25950       -0.86210
H          1.14050        0.58940        1.32210
H          3.21630       -0.01670        0.78150
H          2.43330        2.14110       -0.36130
H          1.76130        1.11320       -1.68670
H          4.54820        1.94380       -1.62980
H          1.98740       -2.12610       -0.78910
