18
5409	1
C          1.05030       -0.01050       -0.19460
C          2.54930        0.00790       -0.06630
C          3.21150        1.18240        0.01230
C          4.71410        1.24510        0.07440
C          5.33950       -0.08860       -0.34910
N          4.70480       -1.19050        0.36960
C          3.28860       -1.32080       -0.01790
H          0.61860        1.01310       -0.21770
H          0.61100       -0.55490        0.66730
H          0.76700       -0.53070       -1.13330
H          2.65980        2.11770        0.03340
H          5.00440        1.52520        1.10930
H          5.09170        2.02360       -0.62210
H          6.43230       -0.07130       -0.15070
H          5.19680       -0.24220       -1.44280
H          4.77240       -1.00610        1.39890
H          2.79660       -1.97810        0.73170
H          3.20290       -1.81840       -1.00730
