15
5420	2
C          1.03660       -0.08220       -0.05670
C          2.51980       -0.00690        0.13530
N          3.12230        1.13350        0.10220
C          4.56460        1.21770        0.22720
C          5.20260       -0.14470       -0.08580
O          4.58760       -1.13780        0.70440
N          3.28090       -1.19780        0.34930
H          0.60440        0.92940       -0.21260
H          0.56960       -0.53700        0.84160
H          0.80940       -0.70950       -0.94370
H          4.81020        1.53240        1.26400
H          4.96380        1.97480       -0.48020
H          6.29120       -0.10880        0.12930
H          5.08430       -0.39680       -1.16500
H          2.80770       -2.11290        0.33430
