10
5482	1
F          0.99620        0.04290        0.03480
C          2.35070        0.03560       -0.02440
C          3.05970        1.23190       -0.10100
C          4.45160        1.19140       -0.16060
N          5.09010       -0.00890       -0.14300
N          4.40970       -1.15600       -0.06960
C          3.05150       -1.16910       -0.00940
H          2.53810        2.18020       -0.11410
H          5.02280        2.10810       -0.22050
H          2.52130       -2.11030        0.04960
