15
5453	2
C          0.92530        0.15650        0.00830
C          2.42310        0.12720       -0.00370
N          3.08440        1.23440        0.00110
C          4.50530        1.26610       -0.01000
C          5.22210        0.13530       -0.02610
C          4.55450       -1.21450       -0.03310
N          3.10590       -1.12430       -0.02050
H          0.54730        1.20140        0.02050
H          0.55160       -0.36960        0.91130
H          0.53750       -0.35340       -0.89810
H          5.01520        2.22390       -0.00530
H          6.30650        0.18910       -0.03430
H          4.88840       -1.78010        0.86210
H          4.87370       -1.76340       -0.94390
H          2.55680       -1.99680       -0.02410
