12
5463	1
F          0.93290       -0.07420        0.01790
C          2.29150       -0.07160        0.00320
C          2.96450        1.08450       -0.00670
O          4.32590        1.09950       -0.02140
C          5.13890       -0.03070       -0.02760
C          4.36960       -1.33280       -0.01630
C          3.03240       -1.34150       -0.00180
H          2.42190        2.02420       -0.00310
H          5.79590       -0.00030        0.86630
H          5.77640       -0.00450       -0.93570
H          4.91330       -2.27250       -0.01990
H          2.49350       -2.28370        0.00620
