13
5435	2
N          0.98610        0.12400        0.06800
C          2.40550        0.11150        0.06160
C          3.09090        1.25940        0.07060
C          4.55630        1.22060        0.06370
N          5.17280        0.09020        0.04910
O          4.52740       -1.07090        0.03980
C          3.14190       -1.20760        0.04450
H          0.46540        1.01360        0.07960
H          0.46090       -0.76230        0.06100
H          2.57690        2.21590        0.08290
H          5.12320        2.14520        0.07090
H          2.84740       -1.79210        0.94110
H          2.83940       -1.77320       -0.86150
