11
5475	1
F          1.00350        0.08490        0.18990
C          2.35520        0.09720        0.08590
C          3.04400        1.31090        0.03610
C          4.43740        1.30330       -0.07120
N          5.11110        0.12210       -0.12610
C          4.45830       -1.07120       -0.07890
C          3.06520       -1.10390        0.02820
H          2.50500        2.24850        0.08000
H          4.98290        2.23670       -0.11080
H          5.02010       -1.99450       -0.12440
H          2.54280       -2.05120        0.06600
