15
5448	1
C          0.91660        0.02790        0.18420
C          2.41240        0.02940        0.02500
C          3.08670        1.18700       -0.12670
O          4.43850        1.19820       -0.27140
C          5.19840        0.07190       -0.27480
C          4.63990       -1.13780       -0.13170
C          3.15050       -1.29110        0.03770
H          0.49230        1.05460        0.15830
H          0.64850       -0.43720        1.15580
H          0.45790       -0.56100       -0.63740
H          2.55380        2.13290       -0.13530
H          6.27350        0.15590       -0.39520
H          5.26790       -2.02340       -0.13760
H          2.95690       -1.80230        1.00430
H          2.76590       -1.92610       -0.78810
