14
5466	1
C          0.93000       -0.12320        0.04200
C          2.43250       -0.07980        0.03290
C          3.09640        1.08190        0.01880
C          4.60260        1.10340        0.00990
O          5.17420       -0.16560        0.01770
N          4.48870       -1.30350        0.03170
C          3.20110       -1.33330        0.03950
H          0.48500        0.89500        0.03570
H          0.58060       -0.65320        0.95280
H          0.57010       -0.66910       -0.85510
H          2.55800        2.02540        0.01360
H          4.95500        1.65780        0.90440
H          4.94450        1.64190       -0.89830
H          2.68610       -2.28840        0.05090
