15
5468	1
C          1.02740       -0.04660        0.00750
C          2.52550       -0.03770       -0.00090
N          3.16060        1.08430       -0.00450
N          4.54030        1.15090       -0.01230
C          5.38490       -0.03340       -0.01710
C          4.59790       -1.31610       -0.01260
C          3.26370       -1.31300       -0.00500
H          0.62400        0.98880        0.00970
H          0.66290       -0.57290        0.91440
H          0.65280       -0.57290       -0.89530
H          4.99180        2.07680       -0.01490
H          6.03590       -0.01470        0.88200
H          6.02560       -0.01480       -0.92370
H          5.13020       -2.26240       -0.01560
H          2.72190       -2.25420       -0.00190
