17
5411	1
C          1.05720        0.04120       -0.12090
C          2.55110        0.10090        0.04320
C          3.19310        1.28560        0.06600
C          4.69100        1.34830        0.16390
C          5.29070       -0.01800       -0.17510
O          4.67890       -1.01530        0.60740
C          3.32790       -1.19840        0.20350
H          0.60740        1.05210       -0.22310
H          0.60630       -0.45470        0.76400
H          0.80950       -0.54580       -1.02990
H          2.63460        2.21570        0.01270
H          4.96450        1.68110        1.18770
H          5.09070        2.07840       -0.57170
H          6.38380       -0.00480        0.01860
H          5.16190       -0.24850       -1.25910
H          2.83710       -1.76960        1.01920
H          3.26630       -1.81350       -0.72040
