12
5472	1
F          1.02190       -0.04270        0.17880
C          2.37030       -0.02740        0.03830
C          3.05270        1.19220       -0.03420
C          4.44410        1.20780       -0.17920
C          5.15350        0.00420       -0.25160
C          4.47160       -1.21510       -0.17910
C          3.08020       -1.23110       -0.03410
H          2.50490        2.12400        0.02180
H          4.97180        2.15110       -0.23530
H          6.23000        0.01640       -0.36390
H          5.02060       -2.14630       -0.23510
H          2.55360       -2.17520        0.02190
