13
5477	1
N          0.92250       -0.04220        0.14700
C          2.33660       -0.05610        0.06530
C          3.05570        1.14320       -0.01130
C          4.44880        1.11220       -0.09130
C          5.10830       -0.11910       -0.09380
N          4.39540       -1.27530       -0.01880
C          3.03690       -1.27050        0.06000
H          0.40720        0.85020        0.15100
H          0.39280       -0.92440        0.20340
H          2.53840        2.09450       -0.00890
H          5.01310        2.03390       -0.15080
H          6.18780       -0.15530       -0.15540
H          2.50260       -2.20980        0.11830
