9
5395	1
N          0.93630       -0.05450       -0.06900
C          2.21860       -0.01760       -0.06780
C          2.90990        1.18810       -0.06660
N          4.26230        1.15420       -0.06530
O          4.90600        0.01090       -0.06520
N          4.25960       -1.13220       -0.06630
N          2.92810       -1.16800       -0.06760
H          0.36860        0.80680       -0.06920
H          2.39040        2.13820       -0.06670
