14
5447	1
F          0.98610        0.02260        0.27400
C          2.33320        0.04930        0.09460
C          2.95410        1.23450        0.01110
C          4.44070        1.36690       -0.18690
C          5.17600        0.05760       -0.28390
C          4.55850       -1.12780       -0.20070
C          3.07210       -1.25980       -0.00280
H          2.36430        2.14290        0.08890
H          4.85780        1.94020        0.66730
H          4.61970        1.93890       -1.12140
H          6.25220        0.07990       -0.42710
H          5.15060       -2.03460       -0.27890
H          2.89410       -1.83240        0.93150
H          2.65600       -1.83380       -0.85710
