17
5562	1
C          0.92310       -0.04120       -0.03610
C          2.45260       -0.02130       -0.07220
C          3.02290        1.09250        0.82000
C          4.42220        0.58960        1.14240
C          4.19740       -0.88650        1.48510
C          3.09360       -1.22240        0.54270
O          2.77110       -2.36980        0.27650
H          0.52450        0.90380       -0.46210
H          0.55090       -0.15390        1.00500
H          0.54210       -0.88980       -0.64290
H          2.81060        0.05570       -1.12250
H          2.46970        1.11650        1.78820
H          2.97560        2.10410        0.36400
H          4.96230        1.15730        1.92930
H          5.01300        0.64840        0.19860
H          3.82590       -1.04250        2.52070
H          5.13650       -1.45390        1.31090
