18
5542	1
C          1.06910       -0.04000       -0.20430
C          2.55760       -0.05450        0.14790
C          2.95550        0.97510        1.19710
O          4.20840        0.57240        1.72430
C          4.39600       -0.77320        1.32110
C          3.04350       -1.28990        0.85350
N          3.14940       -2.47740        0.00570
H          0.79940        0.93890       -0.65350
H          0.44960       -0.19990        0.70390
H          0.84070       -0.83950       -0.93900
H          3.16770        0.11280       -0.77140
H          2.22720        0.97280        2.03970
H          2.99770        1.99330        0.75470
H          4.79660       -1.40340        2.14340
H          5.12380       -0.76580        0.47850
H          2.40200       -1.50060        1.74200
H          3.73410       -2.27220       -0.83680
H          2.19640       -2.75910       -0.31640
