9
5517	1
O          1.07270       -0.08210       -0.06160
C          2.41790       -0.05340       -0.06090
N          3.07930        1.13040       -0.06150
C          4.43360        1.14090       -0.06080
N          5.11360       -0.03170       -0.05940
N          4.45260       -1.18880       -0.05880
N          3.12020       -1.21290       -0.05950
H          0.55650        0.73620       -0.06250
H          4.96960        2.07990       -0.06130
