10
5519	1
N          0.98660        0.06200        0.06890
C          2.39840        0.08430        0.06920
N          3.06600        1.26590        0.06960
N          4.39860        1.28650        0.06990
C          5.10210        0.12690        0.06990
N          4.43550       -1.05420        0.06960
N          3.10290       -1.07570        0.06920
H          0.45310        0.94340        0.06890
H          0.48120       -0.83570        0.06870
H          6.18330        0.14400        0.07020
