17
5536	1
N          1.10840        0.06710       -0.33780
C          2.54060        0.08030       -0.04180
C          2.95750        1.17820        0.93090
N          4.28600        0.78040        1.42350
C          4.39900       -0.66390        1.15950
C          3.00660       -1.12890        0.74160
O          3.00160       -2.33160        0.01550
H          0.85320        0.96350       -0.81190
H          0.55490       -0.00450        0.54680
H          3.12990        0.17550       -0.98390
H          2.24930        1.18700        1.79450
H          2.96010        2.18830        0.47160
H          4.35050        0.97750        2.44890
H          4.80480       -1.24060        2.01960
H          5.09720       -0.77780        0.30140
H          2.37430       -1.24250        1.65270
H          3.54330       -2.19240       -0.80500
