16
5566	1
F          0.96800        0.07070        0.09510
C          2.34670        0.04320       -0.02670
C          2.96640        1.16380        0.81140
C          4.35970        0.63750        1.11250
C          4.10500       -0.81890        1.50880
C          2.96330       -1.16200        0.60780
C          2.54510       -2.41290        0.39040
H          2.64940        0.07190       -1.09590
H          2.42860        1.22300        1.78650
H          2.92720        2.16240        0.32740
H          4.93360        1.21510        1.86760
H          4.92660        0.65110        0.15250
H          3.76030       -0.92870        2.55990
H          5.02600       -1.41520        1.33220
H          3.03570       -3.24880        0.87950
H          1.71140       -2.60590       -0.27740
