11
5510	1
N          0.99720        0.06430       -0.06410
C          2.40920        0.08420       -0.06370
N          3.07290        1.26900       -0.06490
C          4.42970        1.28790       -0.06390
N          5.12460        0.12260       -0.06170
C          4.46290       -1.06200       -0.06060
N          3.10610       -1.08140       -0.06160
H          0.46510        0.94650       -0.06510
H          0.49020       -0.83260       -0.06260
H          4.95720        2.23190       -0.06480
H          5.01680       -1.99070       -0.05880
