15
5573	1
F          0.99450        0.02680        0.17370
C          2.37080       -0.03490        0.03590
C          3.03260        1.06600        0.85750
N          4.36220        0.56170        1.19730
C          4.15320       -0.85510        1.51100
C          2.97360       -1.22310        0.68350
C          2.53340       -2.47510        0.52210
H          2.67050       -0.02970       -1.03430
H          2.46670        1.18510        1.81290
H          3.05240        2.04730        0.33870
H          4.78430        1.07810        2.00350
H          3.92360       -1.01700        2.58770
H          5.05760       -1.42780        1.21510
H          3.03230       -3.30130        1.01910
H          1.67240       -2.67870       -0.10700
