19
5525	1
N          1.02820       -0.07100       -0.23160
C          2.47030       -0.04860        0.00980
C          2.90720        1.01190        1.01670
C          4.35870        0.60230        1.21880
C          4.28200       -0.91730        1.39500
C          2.98870       -1.33770        0.66300
N          3.19540       -2.42790       -0.28840
H          0.73720        0.85120       -0.62930
H          0.51610       -0.20990        0.66990
H          3.00990        0.13570       -0.94930
H          2.34830        0.89530        1.97330
H          2.79050        2.05270        0.64640
H          4.90200        1.12700        2.03260
H          4.89280        0.81340        0.26340
H          4.13760       -1.15030        2.47380
H          5.21670       -1.40810        1.04780
H          2.26060       -1.65310        1.44650
H          3.88440       -2.13470       -1.01870
H          2.28840       -2.64780       -0.75990
