13
5574	1
F          0.99010        0.02000        0.20030
C          2.36820       -0.00300        0.07580
C          3.00000        1.09470        0.92660
N          4.33350        0.60740        1.28390
C          4.15220       -0.82280        1.55280
C          2.98800       -1.18180        0.70980
O          2.63060       -2.33080        0.50430
H          2.68010        0.02270       -0.99020
H          2.41580        1.19000        1.87320
H          3.01330        2.08450        0.42370
H          4.72430        1.10920        2.11490
H          3.92130       -1.02580        2.62180
H          5.06540       -1.36980        1.23700
