18
5524	1
C          1.06370        0.05710       -0.00710
C          2.58630        0.06190        0.10250
C          3.16420        1.15870        0.98850
C          4.60170        0.67070        1.13300
C          4.37420       -0.78080        1.52850
C          3.19070       -1.24150        0.66140
F          3.60850       -2.03960       -0.39060
H          0.71130        1.02550       -0.42110
H          0.60460       -0.09550        0.99280
H          0.73660       -0.76090       -0.68330
H          3.02270        0.23250       -0.91030
H          2.66930        1.14970        1.98740
H          3.07320        2.17570        0.55050
H          5.20200        1.24060        1.87370
H          5.11350        0.71460        0.14430
H          4.01210       -0.74370        2.58260
H          5.26330       -1.44600        1.51230
H          2.49810       -1.82160        1.31100
