20
5560	1
C          1.05960       -0.09770       -0.00840
C          2.58580       -0.08490        0.04510
C          3.13670        1.04080        0.91320
C          4.54660        0.54110        1.11150
C          4.27080       -0.91340        1.46470
N          3.12660       -1.33210        0.62940
C          3.52210       -2.29890       -0.40550
H          0.68630        0.85980       -0.42950
H          0.63720       -0.23550        1.00970
H          0.71080       -0.92950       -0.65550
H          2.98550        0.06760       -0.98730
H          2.62180        1.04900        1.90230
H          3.05870        2.04990        0.45520
H          5.13750        1.08980        1.87530
H          5.08490        0.58580        0.13670
H          3.92810       -0.95390        2.52260
H          5.17600       -1.55590        1.38160
H          3.89280       -3.23030        0.07320
H          4.32340       -1.88680       -1.05850
H          2.64380       -2.56780       -1.03010
