16
5538	1
O          1.19430       -0.05500       -0.22490
C          2.56590       -0.03100        0.06140
C          2.95530        1.06530        1.04590
N          4.25960        0.66280        1.59980
C          4.39280       -0.77190        1.30270
C          3.00990       -1.23610        0.86020
O          3.01600       -2.44240        0.13970
H          1.00070        0.78090       -0.72360
H          3.17370        0.04530       -0.87210
H          2.20600        1.08210        1.87370
H          2.98420        2.07340        0.58180
H          4.24970        0.81770        2.63530
H          4.79880       -1.36350        2.15220
H          5.10010       -0.85910        0.44800
H          2.35690       -1.34440        1.75760
H          3.58120       -2.31230       -0.66600
