15
5592	2
N          0.92450       -0.05740        0.14420
C          2.38340       -0.10400        0.04510
C          3.07570        1.03660        0.84360
N          4.34240        0.50200        1.39650
N          4.07790       -0.85500        1.50120
C          2.98180       -1.25220        0.74050
N          2.65500       -2.47980        0.55160
H          0.58490        0.83070       -0.28920
H          0.62060       -0.07770        1.14420
H          2.71180       -0.14900       -1.01600
H          2.42590        1.27620        1.71880
H          3.20480        1.97390        0.26300
H          4.48260        0.89210        2.35760
H          4.72920       -1.51300        1.95440
H          3.16380       -3.24040        1.02500
