12
5669	3
N          0.87340        0.09380       -0.06550
C          2.28510        0.03090       -0.07090
N          3.09340        1.10370       -0.07640
N          4.33590        0.63600       -0.08040
H          5.18900        1.23710       -0.08510
N          4.35830       -0.69150       -0.07780
C          3.07610       -1.09170       -0.07180
N          2.66040       -2.44220       -0.06720
H          0.39900        1.00800       -0.06530
H          0.30840       -0.76670       -0.06200
H          3.36170       -3.19660       -0.06860
H          1.65990       -2.68480       -0.06210
