15
5640	1
C          1.17010        0.05600        0.03640
N          2.59160        0.10180       -0.21450
O          3.26520        1.26050       -0.30820
C          4.49450        0.86200       -0.91420
C          4.77880       -0.62470       -0.58090
C          3.40090       -1.02170       -0.33480
N          2.99100       -2.22460       -0.14350
H          0.76200        1.08630        0.10790
H          0.97300       -0.47500        0.99150
H          0.65970       -0.47560       -0.79410
H          5.34820        1.51120       -0.62770
H          4.33980        0.95310       -2.01360
H          5.33030       -0.75640        0.37450
H          5.28840       -1.13130       -1.42820
H          3.64420       -3.01950       -0.20090
