9
5674	3
O          1.06310        0.12480        0.04180
C          2.40600        0.04810        0.03900
N          3.23970        1.10020        0.03220
O          4.44670        0.59670        0.03180
N          4.45440       -0.71100        0.03790
C          3.16460       -1.08300        0.04260
O          2.72580       -2.35450        0.04950
H          0.61800        0.98350        0.03880
H          3.35130       -3.09220        0.05150
