13
5677	1
C          1.01230        0.10950        0.11450
C          2.30800        0.09100       -0.21280
O          2.99840        1.16950       -0.60120
C          4.32230        0.81500       -0.86960
O          4.40190       -0.55690       -0.62020
C          3.20950       -1.01780       -0.22500
C          2.96660       -2.29420        0.08810
H          0.45610        1.04040        0.07350
H          0.50050       -0.79530        0.42310
H          5.01130        1.36770       -0.19660
H          4.56810        1.02650       -1.93170
H          3.76390       -3.02800        0.02880
H          1.97980       -2.61470        0.40320
