15
5624	1
O          1.16330        0.16080       -0.00290
N          2.49600        0.13920        0.14200
C          3.31380        1.31500        0.06710
C          4.51810        0.81120       -0.74750
C          4.68840       -0.67540       -0.35230
C          3.26160       -1.00690       -0.09800
N          2.77900       -2.19590       -0.05070
H          0.80820        0.13330        0.92170
H          3.65280        1.55640        1.09790
H          2.80530        2.19100       -0.38970
H          5.43610        1.43360       -0.69810
H          4.17300        0.80780       -1.80800
H          5.24800       -0.80260        0.59880
H          5.16050       -1.23490       -1.18830
H          3.38130       -3.01590       -0.21370
