11
5660	2
O          1.01950        0.09030        0.03640
C          2.36510        0.07540        0.04100
C          3.21370        1.15830        0.04650
N          4.47990        0.69230        0.04980
H          5.34900        1.27030        0.05420
N          4.46550       -0.63500        0.04660
C          3.17760       -1.02920        0.04120
O          2.77340       -2.31230        0.03680
H          0.53270        0.92630        0.03660
H          2.93890        2.20500        0.04800
H          3.41830       -3.03310        0.03730
