13
5658	2
C          1.18170       -0.10150        0.31090
C          2.47820       -0.04040       -0.00630
C          3.31300        1.19820       -0.10060
N          4.67180        0.71860       -0.49530
N          4.55400       -0.67120       -0.58660
C          3.33510       -1.12780       -0.32080
O          3.03030       -2.31030       -0.34740
H          0.63050        0.80700        0.53160
H          0.66740       -1.05670        0.35040
H          3.34220        1.72290        0.88020
H          2.90830        1.87490       -0.88250
H          5.35500        0.92520        0.26990
H          5.34820       -1.27920       -0.83670
