18
5685	1
C          0.94460        0.12890        0.12860
C          2.46320        0.09480       -0.07040
C          2.96180       -1.08630       -0.82450
C          4.04090       -0.74680       -1.60090
C          4.36730        0.69970       -1.46530
C          3.03510        1.25990       -0.91770
N          2.13810        1.55850       -2.04690
H          0.62710       -0.74870        0.73090
H          0.40440        0.09590       -0.84070
H          0.65860        1.05340        0.67310
H          2.95990        0.06650        0.92520
H          2.62380       -2.10530       -0.68780
H          4.63620       -1.46960       -2.14260
H          4.65850        1.20210       -2.41250
H          5.18960        0.77640       -0.72160
H          3.15180        2.20190       -0.33820
H          2.03010        0.73760       -2.68680
H          2.52550        2.35790       -2.59890
