13
5655	2
N          1.25700       -0.01910        0.48600
C          2.46950       -0.00780        0.06370
N          3.16500        1.14530       -0.29110
C          4.51060        0.83260       -0.72790
C          4.64470       -0.72680       -0.62130
C          3.30250       -1.15360       -0.11320
O          2.97220       -2.30660        0.11480
H          0.72500        0.85780        0.58470
H          2.77590        2.09870       -0.24960
H          5.24590        1.33720       -0.06540
H          4.65090        1.16890       -1.77740
H          5.43550       -1.01400        0.10420
H          4.83850       -1.18300       -1.61550
