8
5680	1
O          1.06510       -0.11420        0.33460
C          2.23170       -0.10330       -0.02250
O          2.92390        0.98110       -0.37430
N          4.19800        0.67180       -0.71880
H          4.32570        0.90650       -1.72980
O          4.26080       -0.67610       -0.59010
C          3.10400       -1.18460       -0.16320
O          2.88220       -2.36690        0.04110
