17
5620	1
C          1.11840       -0.13320        0.18890
N          2.51980       -0.06240       -0.16130
C          3.29880        1.14380       -0.12340
C          4.61090        0.70200       -0.80110
C          4.77340       -0.80150       -0.49880
C          3.34210       -1.18040       -0.36770
N          2.91670       -2.38970       -0.27840
H          0.71420        0.88240        0.38700
H          0.98860       -0.75250        1.10140
H          0.54790       -0.58720       -0.64830
H          3.45330        1.42370        0.94110
H          2.83750        1.98230       -0.68910
H          5.50060        1.34250       -0.62670
H          4.38960        0.74750       -1.89340
H          5.26270       -0.98700        0.48120
H          5.32050       -1.30540       -1.32450
H          3.56580       -3.18510       -0.36660
