13
5667	1
C          1.00970       -0.01410        0.20560
C          2.30080       -0.01950       -0.13550
O          2.96910        1.07390       -0.51140
C          4.29840        0.80190       -0.81440
C          4.51690       -0.72830       -0.59350
C          3.16760       -1.15630       -0.15850
O          2.85140       -2.29940        0.13320
H          0.44520        0.91250        0.18670
H          0.51260       -0.93190        0.50410
H          4.96000        1.39070       -0.14360
H          4.50150        1.07580       -1.87170
H          5.25900       -0.92530        0.20950
H          4.79720       -1.24330       -1.53730
