16
5684	1
C          1.06720        0.03520       -0.03660
C          2.60850        0.03490        0.07300
C          3.17000       -1.19050       -0.67890
C          3.27500       -0.66000       -2.06380
C          3.27600        0.71120       -2.06960
C          3.17170        1.25370       -0.68930
F          4.44810        1.56410       -0.25360
H          0.64990       -0.86050        0.47120
H          0.72490        0.03140       -1.09410
H          0.65090        0.93520        0.46440
H          2.83590        0.03800        1.16130
H          2.51280       -2.07980       -0.56760
H          4.20270       -1.43920       -0.35250
H          3.45360       -1.25950       -2.94640
H          3.45530        1.30290       -2.95740
H          2.51400        2.14370       -0.58620
