15
5699	1
C          1.03880        0.06990        0.10560
C          2.54090        0.01970       -0.17010
N          2.86320       -1.06270       -1.06310
N          3.48280       -0.63860       -2.19470
C          3.61960        0.62180       -2.20490
C          3.04720        1.26530       -0.97070
O          4.01630        1.99490       -0.26160
H          0.71830       -0.86160        0.61830
H          0.47000        0.17010       -0.84370
H          0.80530        0.93530        0.76120
H          3.10250       -0.11540        0.78030
H          2.68260       -2.05760       -0.86530
H          4.08280        1.15280       -3.02560
H          2.22210        1.94120       -1.28340
H          4.78690        1.39160       -0.09030
