17
5697	1
C          1.02380        0.09230        0.25520
C          2.51370       -0.03260       -0.06070
N          2.75320       -1.10790       -0.98650
N          3.36910       -0.68990       -2.12150
C          3.57470        0.56090       -2.10430
C          3.06770        1.20630       -0.84410
C          4.18710        1.92480       -0.09100
H          0.66460       -0.83390        0.75170
H          0.43820        0.24960       -0.67600
H          0.85520        0.95100        0.93890
H          3.08680       -0.22920        0.87250
H          2.52180       -2.09600       -0.80850
H          4.04540        1.08550       -2.92510
H          2.26570        1.92740       -1.11660
H          5.01280        1.22190        0.15320
H          3.78820        2.35370        0.85250
H          4.59230        2.75140       -0.71240
