14
5692	1
O          1.03730       -0.08110       -0.18580
C          2.42830       -0.09060        0.03260
C          3.02100       -1.30620       -0.70500
C          3.14190       -0.76990       -2.08490
C          3.13570        0.60040       -2.08220
C          3.00910        1.13040       -0.70020
F          4.27480        1.44070       -0.23410
H          0.64590       -0.76470        0.41910
H          2.60920       -0.06860        1.13170
H          2.35760       -2.19230       -0.60870
H          4.04740       -1.55020       -0.35590
H          3.33640       -1.36360       -2.96810
H          3.32450        1.19940       -2.96320
H          2.33700        2.00950       -0.59820
