10
5777	1
O          1.06090        0.25460       -0.35780
N          2.40110        0.16670       -0.18320
O          3.22230        1.16740       -0.16820
C          4.44460        0.71000        0.01940
N          4.43660       -0.64240        0.13190
C          3.12960       -0.93960       -0.00260
N          2.64760       -2.12580        0.03690
H          0.69440        0.39200        0.55300
H          5.33260        1.32490        0.07570
H          3.26310       -2.94000        0.17930
