11
5774	1
C          1.01930        0.08620       -0.05370
N          2.47490        0.04460       -0.06320
O          3.25750        1.07800       -0.06990
C          4.51150        0.67090       -0.07750
N          4.57660       -0.68280       -0.07600
C          3.28020       -1.03990       -0.06700
O          2.88840       -2.19340       -0.06280
H          0.67020        1.14020       -0.05290
H          0.63650       -0.42290        0.85550
H          0.62460       -0.42540       -0.95650
H          5.37240        1.32550       -0.08410
