13
5719	1
O          0.96700        0.05580        0.27560
C          2.34110        0.04280        0.00050
C          2.73930       -1.19330       -0.86150
C          3.28620       -0.61330       -2.13370
C          3.24660        0.74880       -2.13250
C          2.68830        1.19160       -0.88830
O          2.52950        2.36480       -0.59060
H          0.81480       -0.64900        0.95770
H          2.94300        0.11800        0.93450
H          1.86080       -1.83140       -1.09850
H          3.52160       -1.79470       -0.35170
H          3.66500       -1.19970       -2.96030
H          3.58510        1.38030       -2.94330
