14
5725	3
C          0.93650       -0.11720       -0.09530
C          2.44870       -0.02920        0.09250
N          3.11360       -1.21390       -0.44980
C          3.92630       -0.91400       -1.39950
N          3.96350        0.45350       -1.66300
C          3.06920        1.03380       -0.76500
N          2.83270        2.29380       -0.69390
H          0.53550       -0.96880        0.49370
H          0.68250       -0.27080       -1.16650
H          0.45470        0.81840        0.25980
H          2.70820        0.11450        1.16330
H          4.51510       -1.64930       -1.93110
H          4.53700        0.93190       -2.37260
H          3.30930        2.95520       -1.32390
