13
5709	1
C          1.05840        0.01420        0.17210
C          2.56190       -0.03120       -0.09130
O          2.86630       -1.06160       -0.95950
N          3.46460       -0.65140       -2.04760
C          3.62410        0.60350       -2.05790
C          3.07390        1.23680       -0.83370
F          4.08280        1.86670       -0.12700
H          0.73360       -0.93030        0.65750
H          0.49950        0.13760       -0.78040
H          0.81810        0.86290        0.84690
H          3.11210       -0.18270        0.86310
H          4.10220        1.12790       -2.87420
H          2.26850        1.95220       -1.10750
