9
5778	1
O          0.92270        0.24290        0.46910
N          2.25970        0.14700        0.27680
O          3.09470        1.13590        0.30010
C          4.30980        0.67210        0.07880
N          4.28620       -0.67400       -0.09740
C          2.97960       -0.96550        0.03530
O          2.51310       -2.08700       -0.05150
H          0.54910        0.42410       -0.43100
H          5.20450        1.27890        0.04260
