12
5741	1
O          1.05430        0.11380        0.25390
N          2.40040        0.02730        0.12390
N          3.21530        1.06710        0.09970
H          2.91340        2.06380        0.17530
C          4.48140        0.61650       -0.03740
C          4.45780       -0.77130       -0.10100
C          3.12010       -1.09760        0.00590
N          2.61990       -2.27770       -0.00340
H          0.71370        0.20410       -0.67280
H          5.35720        1.24980       -0.08690
H          5.30030       -1.44170       -0.20920
H          3.22300       -3.10860       -0.09700
