10
5770	1
N          0.92600        0.06010        0.16000
N          2.32560       -0.01510        0.06190
O          3.12790        1.00690        0.10050
N          4.38350        0.65290       -0.00920
C          4.39970       -0.69610       -0.12750
C          3.09540       -1.11360       -0.08150
O          2.68690       -2.25890       -0.15480
H          0.58170        0.62600       -0.64720
H          0.51900       -0.89980        0.08790
H          5.28840       -1.30290       -0.23620
