11
5756	1
C          0.90430       -0.00220       -0.05910
N          2.36150       -0.03950       -0.06170
N          3.16270        1.00990       -0.05610
H          2.85590        2.00810       -0.04900
N          4.42630        0.60340       -0.06080
N          4.46190       -0.72630       -0.06970
C          3.17510       -1.11650       -0.07020
O          2.80280       -2.27630       -0.07730
H          0.54470        1.04840       -0.05160
H          0.51930       -0.52110        0.84360
H          0.51640       -0.50920       -0.96740
