12
5750	2
C          0.97890       -0.07230        0.00320
N          2.43700       -0.10580        0.00700
N          3.22440        0.95290        0.01470
H          2.90510        1.94740        0.01900
C          4.49790        0.50730        0.01580
N          4.54140       -0.84730        0.00880
C          3.23960       -1.19450        0.00340
O          2.84130       -2.34590       -0.00370
H          0.61560        0.97710        0.00770
H          0.59120       -0.59080        0.90500
H          0.59610       -0.58130       -0.90610
H          5.37060        1.14670        0.02150
