15
5787	1
O          0.96280        0.00700       -0.46030
C          2.31290        0.07680       -0.09140
C          3.05640       -1.12530       -0.55590
C          4.04330       -0.81800       -1.46190
C          4.11870        0.63570       -1.75110
C          3.01680        1.14970       -0.87220
C          2.69560        2.44550       -0.79140
H          0.54050       -0.65560        0.14650
H          2.42660        0.24390        1.00330
H          2.85000       -2.13370       -0.22210
H          4.68970       -1.56020       -1.91110
H          3.91300        0.84030       -2.82310
H          5.10460        1.05150       -1.45370
H          3.23640        3.18310       -1.37620
H          1.89120        2.77300       -0.14020
