12
5744	1
C          1.05090        0.01070       -0.05290
N          2.50840       -0.04090       -0.05100
N          3.31160        1.01100       -0.05510
H          2.99390        2.00590       -0.06020
N          4.58580        0.63330       -0.05190
C          4.60340       -0.71960       -0.04550
C          3.29510       -1.13830       -0.04500
O          2.89560       -2.28920       -0.04000
H          0.70060        1.06450       -0.05830
H          0.65830       -0.49390        0.85460
H          0.66030       -0.50260       -0.95650
H          5.49580       -1.33130       -0.04160
