16
5703	1
C          1.00820        0.06840        0.05420
C          2.49450       -0.06430       -0.27440
O          2.68910       -1.10190       -1.17070
C          3.26930       -0.69160       -2.29960
C          3.51870        0.64040       -2.27970
C          3.05450        1.21210       -0.99030
N          4.17260        1.81230       -0.26300
H          0.64240       -0.86790        0.52630
H          0.42140        0.25450       -0.87100
H          0.84910        0.91010        0.76090
H          3.05810       -0.28350        0.65930
H          3.50820       -1.34840       -3.12510
H          3.98220        1.19130       -3.08760
H          2.27160        1.97610       -1.19210
H          4.91700        1.09800       -0.08540
H          3.82650        2.16460        0.65850
