15
5880	1
C          1.18210        0.01540        0.24490
C          2.49180        0.00830       -0.03500
C          3.28020       -1.24480       -0.31730
C          4.65730       -0.67690       -0.55920
C          4.69150        0.69760       -0.44130
C          3.37020        1.17780       -0.11580
C          3.04610        2.46330        0.07040
H          0.62830       -0.91770        0.27800
H          0.65300        0.94040        0.44200
H          2.90110       -1.76660       -1.22130
H          3.28050       -1.92860        0.55770
H          5.52670       -1.27450       -0.79900
H          5.57720        1.30530       -0.57480
H          3.80360        3.23570       -0.02070
H          2.03170        2.75730        0.31350
