11
5883	1
O          1.13580        0.00590        0.45170
C          2.29760       -0.03120        0.07890
C          3.08370       -1.29080       -0.14940
C          4.41440       -0.71230       -0.58840
C          4.40980        0.67180       -0.61370
C          3.11070        1.13020       -0.20500
O          2.75900        2.29540       -0.11440
H          2.63120       -1.91060       -0.95170
H          3.19040       -1.87690        0.78750
H          5.27710       -1.30850       -0.85420
H          5.25020        1.29210       -0.89590
