13
5839	1
N          0.98930        0.05590        0.29620
N          2.39180        0.00280        0.19680
C          3.22030        1.06220        0.18090
C          4.51750        0.58780        0.07520
N          4.48120       -0.76130        0.02740
H          5.29690       -1.40880       -0.05170
C          3.17660       -1.08800        0.10380
N          2.73750       -2.29300        0.08950
H          0.62760        0.57080       -0.53870
H          0.59550       -0.91210        0.27630
H          2.90780        2.09650        0.24130
H          5.42140        1.18100        0.03630
H          3.38510       -3.09140        0.01640
