13
5790	1
O          1.03750        0.12500       -0.32090
C          2.39600        0.06350        0.01480
C          3.04390       -1.13730       -0.58020
C          4.03000       -0.81250       -1.48320
C          4.19870        0.65440       -1.63980
C          3.15550        1.14520       -0.68720
O          2.94320        2.33240       -0.49690
H          0.58270       -0.56840        0.22490
H          2.54600        0.12440        1.11580
H          2.77590       -2.15650       -0.33460
H          4.61330       -1.55070       -2.01740
H          3.98090        0.97480       -2.68030
H          5.21510        0.97810       -1.33180
