10
5864	1
O          1.05120        0.13100        0.41160
N          2.39060        0.05460        0.22300
C          3.26750        1.06830        0.15230
N          4.51690        0.58570       -0.03950
O          4.40030       -0.71530       -0.08400
C          3.14020       -1.04230        0.07160
N          2.68810       -2.24030        0.07870
H          0.66720        0.19380       -0.50040
H          3.01440        2.11690        0.23640
H          3.32490       -3.04100       -0.04370
