13
5841	1
C          0.88790        0.03040       -0.08160
N          2.34650        0.01880       -0.07660
C          3.16790        1.08740       -0.07340
C          4.47750        0.63340       -0.06920
N          4.47020       -0.71540       -0.06970
H          5.29930       -1.35020       -0.06710
C          3.16110       -1.06570       -0.07430
O          2.76660       -2.21890       -0.07610
H          0.50600        1.07360       -0.08250
H          0.50740       -0.48980        0.82240
H          0.51350       -0.48920       -0.98840
H          2.84290        2.11990       -0.07410
H          5.37130        1.24310       -0.06590
