12
5832	1
O          1.09820       -0.17700        0.01850
N          2.42370       -0.13960        0.21580
C          3.24500       -1.22140        0.50480
N          4.47200       -0.86800        0.65770
C          4.65060        0.57830        0.48490
C          3.23550        0.98710        0.19540
N          2.81410        2.17690       -0.03630
H          0.98940       -0.31750       -0.95680
H          2.90190       -2.24350        0.59350
H          5.32090        0.79630       -0.37300
H          5.02560        1.04570        1.41960
H          3.46750        2.97350       -0.03730
