14
5788	1
F          0.86930       -0.01480       -0.58210
C          2.18960        0.05600       -0.17620
C          2.93980       -1.14370       -0.62400
C          3.96240       -0.83290       -1.48860
C          4.05750        0.62380       -1.75860
C          2.92600        1.13390       -0.91600
C          2.60580        2.42910       -0.83180
H          2.25720        0.18940        0.92420
H          2.71350       -2.15400       -0.30960
H          4.62060       -1.57440       -1.92170
H          3.89350        0.84160       -2.83510
H          5.03370        1.03050       -1.41940
H          3.17040        3.17190       -1.38680
H          1.77830        2.75140       -0.20740
