9
5867	1
O          1.02530        0.25190       -0.43250
N          2.36180        0.16090       -0.23120
C          3.25430        1.16170       -0.17790
N          4.49530        0.66500        0.03550
O          4.36250       -0.63340        0.11120
C          3.10140       -0.95010       -0.04580
O          2.66050       -2.08520       -0.02750
H          0.63520        0.33800        0.47500
H          3.01830        2.21160       -0.28940
