11
5863	1
N          1.00890        0.03650       -0.28140
N          2.40690       -0.02900       -0.14350
C          3.26210        1.00570       -0.10040
N          4.52980        0.55390        0.03680
O          4.44910       -0.74970        0.07640
C          3.19310       -1.10980       -0.03020
N          2.77760       -2.32160       -0.02680
H          0.62930        0.55390        0.54390
H          0.61010       -0.92970       -0.27140
H          2.98070        2.04850       -0.16580
H          3.44270       -3.10310        0.06420
