11
5865	1
C          0.89630       -0.04180        0.04950
N          2.35400       -0.05690        0.05190
C          3.19570        0.99320        0.05380
N          4.47950        0.56760        0.05570
O          4.43210       -0.73660        0.05500
C          3.18230       -1.12500        0.05280
O          2.81840       -2.28760        0.05160
H          0.51880        1.00290        0.04940
H          0.51630       -0.56130        0.95410
H          0.51930       -0.56040       -0.85680
H          2.89250        2.03220        0.05380
