13
5823	1
O          1.27690       -0.13580       -0.56560
N          2.54770       -0.11050       -0.13890
C          3.32210       -1.22660        0.15170
C          4.58520       -0.82780        0.54810
C          4.70980        0.68810        0.53270
C          3.31910        1.03760        0.06660
N          2.87860        2.22810       -0.12450
H          0.72970       -0.11960        0.26100
H          2.97980       -2.25020        0.07650
H          5.37470       -1.51190        0.82900
H          5.48100        1.02370       -0.19190
H          4.91540        1.08940        1.54720
H          3.48430        3.04530        0.03990
