12
5857	1
N          0.92490        0.19990       -0.27520
N          2.32520        0.14710       -0.14990
C          3.15690        1.20040       -0.12270
C          4.44550        0.71050        0.00880
O          4.37930       -0.60660        0.05770
C          3.11160       -0.93910       -0.03780
N          2.68150       -2.14600       -0.02560
H          0.54800        0.71780        0.55100
H          0.53180       -0.76850       -0.25850
H          2.85380        2.23690       -0.19250
H          5.35800        1.28880        0.06310
H          3.33760       -2.93550        0.06310
