11
5983	1
C          0.90600        0.00630       -0.07610
C          2.39820       -0.02710       -0.08100
N          3.19820        1.05680       -0.08820
N          4.44480        0.59930       -0.09070
H          5.29700        1.20190       -0.09610
O          4.45210       -0.70330       -0.08540
C          3.21660       -1.12950       -0.07940
O          2.87900       -2.29950       -0.07350
H          0.54630        1.05670       -0.07880
H          0.52460       -0.50460        0.83250
H          0.51850       -0.51130       -0.97820
