17
5986	1
C          0.93930        0.00710        0.15990
C          2.46710       -0.01670        0.18730
C          3.05230        1.09850       -0.62020
C          3.81100        0.59730       -1.65000
C          3.79140       -0.77260       -1.60400
C          3.04490       -1.18060       -0.58020
C          2.81650       -2.62170       -0.22970
H          0.56840        0.92950        0.65510
H          0.53560       -0.87030        0.70760
H          0.56160       -0.01630       -0.88550
H          2.83970        0.00540        1.23390
H          2.90680        2.15380       -0.42960
H          4.34060        1.19910       -2.37650
H          4.30910       -1.42660       -2.29410
H          3.35130       -3.29510       -0.93310
H          1.73220       -2.85150       -0.27620
H          3.18620       -2.81360        0.79900
