16
5908	1
C          0.98590        0.03350        0.12480
C          2.51470       -0.02290        0.06970
C          3.09480       -1.28330        0.72630
C          3.29840       -0.91960        2.20130
C          3.52740        0.54770        2.10210
C          3.09950        1.03210        0.94840
F          3.07270        2.36050        0.66510
H          0.55890       -0.80360       -0.46700
H          0.62620        0.99070       -0.30930
H          0.61740       -0.04700        1.17040
H          2.85650        0.03810       -0.98690
H          4.12830       -1.36950        0.31340
H          2.58950       -2.24860        0.51050
H          4.15390       -1.49030        2.62190
H          2.38280       -1.07710        2.81070
H          3.88770        1.16960        2.91090
