10
5978	1
F          0.88040        0.13590        0.00040
C          2.23810        0.09830       -0.01310
C          2.98110       -0.98620       -0.08190
C          4.44550       -0.60210       -0.07190
O          4.40550        0.78650        0.00870
C          3.13390        1.21090        0.04380
O          2.80940        2.38490        0.11440
H          2.59350       -1.99490       -0.13700
H          4.94570       -0.92440       -1.00930
H          4.96080       -1.02980        0.81380
