9
5900	1
O          1.13580       -0.03670        0.26460
C          2.30880        0.00680       -0.06880
O          3.04110       -1.07590       -0.40510
C          4.29480       -0.65420       -0.71820
C          4.41890        0.72400       -0.59500
C          3.12420        1.19520       -0.16700
O          2.79310        2.34730        0.06150
H          5.09280       -1.31680       -1.02500
H          5.30990        1.30740       -0.78480
