9
5966	2
O          0.95270       -0.04030       -0.06370
C          2.29750       -0.06740       -0.06330
N          3.08250        1.02450       -0.06350
O          4.31820        0.60410       -0.06310
C          4.37280       -0.71320       -0.06260
C          3.08260       -1.18800       -0.06270
F          2.67900       -2.48170       -0.06230
H          0.47570        0.80120       -0.06420
H          5.28270       -1.29810       -0.06210
