13
5918	1
N          1.05690        0.08500       -0.09260
C          2.51310        0.09710        0.01930
C          3.04370       -1.18110        0.72550
O          3.65190       -0.72480        1.88040
C          3.58040        0.60280        1.99370
C          2.95290        1.14210        0.98240
F          2.73870        2.47610        0.84070
H          0.77850       -0.68860       -0.73890
H          0.74300        0.98320       -0.52730
H          2.99230        0.25430       -0.97270
H          3.79550       -1.69750        0.09140
H          2.22460       -1.88440        0.98970
H          3.99550        1.15660        2.82520
