11
5957	2
N          0.96440        0.14520        0.00670
C          2.37530        0.09150        0.00240
N          3.17280        1.17530       -0.00260
N          4.42840        0.74890       -0.00550
H          5.26230        1.37680       -0.00950
C          4.44710       -0.59960       -0.00250
C          3.14610       -1.04690        0.00260
F          2.72000       -2.33340        0.00690
H          0.48160        1.05510        0.00610
H          0.41040       -0.72330        0.01040
H          5.34350       -1.20560       -0.00390
