11
5898	1
C          1.17830        0.00070        0.16530
C          2.48820        0.03780       -0.08710
O          3.23930       -1.05230       -0.36260
C          4.52120       -0.65070       -0.56660
C          4.65560        0.72270       -0.43140
C          3.33720        1.21370       -0.11520
O          3.01200        2.37310        0.08500
H          0.64870       -0.94640        0.15770
H          0.63250        0.91400        0.37980
H          5.33190       -1.32590       -0.80490
H          5.56860        1.29210       -0.54330
