14
5912	1
O          1.08470        0.00540        0.08440
C          2.47910       -0.05750       -0.04330
C          3.05730       -1.31740        0.61540
C          3.25900       -0.95100        2.08840
C          3.50410        0.51170        1.98100
C          3.08120        0.99260        0.82470
F          3.06400        2.31970        0.53540
H          0.71800       -0.70090       -0.50870
H          2.78830        0.01450       -1.11060
H          4.08830       -1.41200        0.19820
H          2.54050       -2.27790        0.40670
H          4.10670       -1.52930        2.51420
H          2.33820       -1.09480        2.69360
H          3.87130        1.13470        2.78590
