14
5939	1
F          0.98960        0.07030        0.29630
C          2.33170        0.07300        0.08130
C          3.05400       -1.00910       -0.09830
C          4.50650       -0.69280       -0.31180
C          4.58720        0.85470       -0.23520
C          3.16770        1.24550        0.01650
C          2.73700        2.50210        0.16000
H          2.64350       -2.01030       -0.09130
H          4.83020       -1.06080       -1.30880
H          5.11490       -1.16460        0.48920
H          4.94030        1.28860       -1.19560
H          5.23330        1.18390        0.60720
H          3.43560        3.33050        0.09660
H          1.68680        2.70870        0.34110
