12
5941	1
F          0.97230        0.11100        0.14750
C          2.32150        0.10360       -0.01180
C          3.06230       -0.98030       -0.04930
C          4.52100       -0.66290       -0.23640
C          4.58170        0.88700       -0.31530
C          3.15010        1.26580       -0.16350
O          2.73410        2.41320       -0.16730
H          2.66330       -1.98190        0.04420
H          4.88900       -1.12480       -1.17740
H          5.10270       -1.04120        0.63110
H          4.96600        1.23000       -1.29990
H          5.18110        1.31400        0.51710
