16
5913	1
C          1.10720        0.02370        0.03660
C          2.60600        0.04360       -0.00830
C          3.35940       -1.04330       -0.09840
C          4.80630       -0.71800        0.01860
C          4.79240        0.77670       -0.30920
C          3.42620        1.27720        0.16450
F          2.99580        2.32860       -0.62650
H          0.71420       -1.01040       -0.06720
H          0.70440        0.64190       -0.79230
H          0.76060        0.44210        1.00440
H          2.96130       -2.04940       -0.13430
H          5.45900       -1.26070       -0.69840
H          5.11380       -0.92110        1.06690
H          4.75700        0.82520       -1.42390
H          5.67640        1.36630        0.01250
H          3.41070        1.55540        1.24020
