12
5959	2
N          1.04110        0.02780        0.03450
C          2.45350        0.00670        0.03810
C          3.29830        1.09160        0.04270
N          4.56610        0.62950        0.04490
H          5.43320        1.21050        0.04840
N          4.55640       -0.69800        0.04200
C          3.27010       -1.09700        0.03780
O          2.87150       -2.38200        0.03400
H          0.53610        0.92560        0.03520
H          0.50790       -0.85360        0.03120
H          3.02040        2.13740        0.04420
H          3.51950       -3.10000        0.03410
