14
5953	2
C          1.05540        0.09160       -0.00210
C          2.55170        0.06290       -0.06900
C          3.31440       -1.02610       -0.11070
C          4.78070       -0.64450       -0.17340
N          4.70480        0.80180       -0.15980
C          3.43030        1.20210       -0.10010
O          3.08800        2.37380       -0.07660
H          0.63990       -0.93850        0.00910
H          0.65550        0.63040       -0.88610
H          0.73610        0.61760        0.92150
H          2.93710       -2.04060       -0.10110
H          5.25110       -1.00650       -1.11190
H          5.33250       -1.01940        0.71430
H          5.51720        1.43520       -0.19150
