12
6035	1
N          0.95150       -0.03990       -0.07370
C          2.36230       -0.08540       -0.00970
N          3.14960        0.99820        0.11760
N          4.40510        0.56190        0.14010
C          4.36800       -0.78380        0.02630
N          3.09600       -1.20530       -0.06760
N          2.63320       -2.52570       -0.20130
H          0.46130        0.86440       -0.02060
H          0.40490       -0.90690       -0.17390
H          5.23940       -1.42540        0.01300
H          3.45160       -3.17690       -0.20340
H          2.04530       -2.74640        0.63450
