9
6081	1
O          1.15620        0.14670        0.08170
C          2.49970        0.07810        0.07890
N          3.32860        1.13640        0.07350
N          4.55570        0.62240        0.07200
N          4.48320       -0.70410        0.07620
N          3.20870       -1.05230        0.08070
O          2.72850       -2.32240        0.08510
H          0.70600        1.00270        0.07970
H          3.51990       -2.92040        0.09700
