10
6072	1
O          1.14060       -0.08230        0.01610
C          2.48420       -0.02150        0.05580
N          3.20110        1.10920       -0.08360
C          4.48050        0.67530        0.02810
N          4.53380       -0.66060        0.22670
N          3.28310       -1.07750        0.23980
O          2.90220       -2.36460        0.41920
H          0.61400        0.71740       -0.12010
H          5.34890        1.31700       -0.03330
H          2.88820       -2.75590       -0.49170
