12
6019	1
N          1.03490       -0.02010        0.08580
C          2.44710        0.02060        0.11410
C          3.23590        1.14250        0.01380
N          4.53270        0.76200        0.08530
C          4.50190       -0.58450        0.22750
N          3.24030       -1.04840        0.24540
O          2.85550       -2.34080        0.37690
H          0.49300        0.84980       -0.01860
H          0.53880       -0.91880        0.16920
H          2.90080        2.16460       -0.10220
H          5.38270       -1.20680        0.31580
H          2.80350       -2.68840       -0.55030
