14
6014	1
C          0.89820        0.01970        0.15790
C          2.39190       -0.01650        0.11780
C          3.24410        1.06340        0.02750
N          4.51930        0.61280        0.01760
C          4.42140       -0.73300        0.10200
N          3.13640       -1.13060        0.16320
N          2.66200       -2.45070        0.25920
H          0.53150        1.06600        0.10030
H          0.54100       -0.43760        1.10400
H          0.49090       -0.55180       -0.70180
H          2.96380        2.10690       -0.02750
H          5.27180       -1.40220        0.11820
H          3.47360       -3.10990        0.25580
H          2.08120       -2.64730       -0.58730
