13
6028	1
C          0.94010       -0.01840       -0.02140
C          2.43260        0.01090       -0.05260
N          3.16790        1.13800        0.05840
C          4.45340        0.72380       -0.01990
C          4.47760       -0.64710       -0.17710
N          3.20930       -1.07660       -0.19430
O          2.79560       -2.35920       -0.33430
H          0.53730        1.00850        0.10470
H          0.59830       -0.64780        0.82650
H          0.55660       -0.44350       -0.97220
H          5.31160        1.37990        0.03370
H          5.35040       -1.27980       -0.27140
H          2.73400       -2.71130        0.59060
