14
6044	1
C          1.01020        0.02840        0.14490
C          2.50490        0.00750        0.12210
C          3.34170        1.10060        0.04700
C          4.62170        0.57060        0.05800
N          4.54410       -0.77470        0.13660
N          3.26230       -1.10220        0.17350
N          2.78790       -2.42190        0.26110
H          0.63450        1.07210        0.09490
H          0.64650       -0.44140        1.08230
H          0.61700       -0.53700       -0.72530
H          3.06320        2.14470       -0.00810
H          5.54780        1.12760        0.01250
H          3.60530       -3.07410        0.27450
H          2.22790       -2.62130       -0.59880
