14
6011	1
C          0.99090        0.02030        0.08920
N          2.44960       -0.01390        0.09390
C          3.28280        1.04600        0.09930
N          4.58140        0.66470        0.10260
C          4.55560       -0.68550        0.09910
C          3.24430       -1.09590        0.09380
N          2.79190       -2.43620        0.08890
H          0.62510        1.06930        0.09060
H          0.60160       -0.49440        0.99260
H          0.60750       -0.48990       -0.81930
H          2.95770        2.07850        0.10080
H          5.43430       -1.31670        0.10030
H          3.47070       -3.21110        0.08920
H          1.78460       -2.64940        0.08510
