11
6017	1
N          0.88260        0.05850       -0.27930
N          2.28160       -0.01480       -0.16460
C          3.13170        1.02660       -0.15090
N          4.41500        0.61640       -0.03080
C          4.35210       -0.73350        0.03130
C          3.03440       -1.11820       -0.05220
F          2.55960       -2.38810       -0.02720
H          0.51990        0.58830        0.54570
H          0.48010       -0.90610       -0.24940
H          2.82990        2.06320       -0.22650
H          5.21070       -1.38410        0.12980
