15
5990	1
C          0.92930        0.04940       -0.07860
C          2.42600       -0.03410       -0.08020
C          3.23670        1.02150       -0.06210
C          4.54440        0.60570       -0.06480
C          4.58690       -0.76800       -0.08520
C          3.19920       -1.32870       -0.09970
O          2.94800       -2.08380       -1.25810
H          0.58640        1.10600       -0.06070
H          0.53190       -0.47100        0.81730
H          0.53040       -0.44020       -0.99120
H          2.91100        2.05370       -0.04540
H          5.41340        1.24990       -0.05110
H          5.49890       -1.35000       -0.08940
H          2.99770       -1.93910        0.80560
H          3.11920       -1.50460       -2.04740
