13
6026	1
N          0.91890        0.14690       -0.14360
C          2.33080        0.09770       -0.10140
N          3.11160        1.19280       -0.00810
C          4.37710        0.71360       -0.00070
C          4.34040       -0.66430       -0.08820
N          3.05190       -1.03570       -0.14900
N          2.55340       -2.34620       -0.24730
H          0.43210        1.05400       -0.10100
H          0.36810       -0.71940       -0.21700
H          5.26480        1.32980        0.06470
H          5.18580       -1.33920       -0.10530
H          3.35250       -3.02080       -0.25790
H          1.97790       -2.53700        0.60400
