10
6134	1
C          1.17670        0.09030       -0.07820
C          2.66710        0.02860       -0.07990
N          3.48500        1.09430       -0.08470
O          4.70020        0.61690       -0.08460
N          4.73390       -0.68820       -0.08020
C          3.45370       -1.09070       -0.07710
F          3.04640       -2.38330       -0.07210
H          0.83660        1.14720       -0.08140
H          0.78370       -0.41360        0.82940
H          0.78130       -0.41980       -0.98130
