16
6152	1
C          0.86700        0.07250       -0.05540
C          2.36210        0.05360       -0.05010
C          3.19560        1.15490       -0.04360
C          4.48850        0.66540       -0.04060
N          4.46920       -0.68190       -0.04500
H          5.30410       -1.30910       -0.04400
C          3.17760       -1.06230       -0.05080
C          2.72300       -2.48730       -0.05710
H          0.49060        1.11730       -0.05340
H          0.48450       -0.44880        0.84670
H          0.49090       -0.44300       -0.96360
H          2.89910        2.19550       -0.04130
H          5.39230        1.26020       -0.03540
H          3.59610       -3.17310       -0.05620
H          2.11500       -2.68100       -0.96520
H          2.10850       -2.68690        0.84540
