11
6114	1
N          0.91830       -0.00540        0.08210
C          2.33050       -0.03930        0.08650
C          3.17590        1.04690        0.08920
O          4.42060        0.61350        0.09320
C          4.42330       -0.70580        0.09320
C          3.12180       -1.15840        0.08890
F          2.71100       -2.44990        0.08750
H          0.42100        0.89680        0.08080
H          0.37740       -0.88210        0.08040
H          2.88720        2.08970        0.08830
H          5.31500       -1.31830        0.09610
