11
6131	2
C          0.97720        0.11850       -0.04600
C          2.46980        0.08910       -0.04380
N          3.27000        1.16630       -0.04170
H          2.98290        2.17010       -0.04140
N          4.52450        0.73870       -0.04020
N          4.55970       -0.58880       -0.04120
C          3.28310       -1.01530       -0.04340
F          2.90110       -2.31560       -0.04500
H          0.61190        1.16680       -0.04580
H          0.59340       -0.39810        0.85830
H          0.59610       -0.39670       -0.95220
