12
6094	1
C          1.02550       -0.02340        0.05240
C          2.52200       -0.05950        0.05240
C          3.35030        0.98580        0.05410
C          4.66810        0.50220        0.05350
N          4.70010       -0.78220        0.05150
C          3.37360       -1.22220        0.05070
O          3.02850       -2.39270        0.04880
H          0.65750        1.02450        0.05400
H          0.64280       -0.54110        0.95640
H          0.64290       -0.53830       -0.85330
H          3.05110        2.02590        0.05570
H          5.56010        1.11410        0.05450
