11
6184	1
N          0.96750       -0.01720        0.07690
C          2.37940       -0.05820        0.07920
N          3.18090        1.01560        0.08250
H          2.89770        2.02040        0.08380
N          4.43410        0.57850        0.08380
N          4.46160       -0.75140        0.08140
C          3.18050       -1.16600        0.07850
O          2.78570       -2.45190        0.07550
H          0.47620        0.88800        0.07770
H          0.42180       -0.89090        0.07440
H          3.43620       -3.16770        0.07520
