13
6106	1
N          0.96820       -0.04840        0.05580
C          2.38070       -0.08320        0.06090
C          3.22490        1.00700        0.06610
N          4.50520        0.57770        0.06990
H          5.35750        1.18050        0.07420
C          4.48330       -0.77240        0.06730
C          3.17340       -1.20530        0.06160
O          2.74830       -2.48260        0.05760
H          0.47170        0.85420        0.05570
H          0.42600       -0.92430        0.05220
H          2.92970        2.04820        0.06700
H          5.36640       -1.39780        0.06930
H          3.37900       -3.21620        0.05850
