17
6099	1
C          0.91150        0.09260       -0.03080
C          2.41040        0.05920       -0.02860
C          3.15180       -1.03900       -0.02510
C          4.61650       -0.69890       -0.02380
C          4.54260        0.80300       -0.02730
C          3.28340        1.21550       -0.03010
C          2.84100        2.64790       -0.03400
H          0.48990       -0.93510       -0.02910
H          0.55410        0.62420       -0.93720
H          0.55160        0.62830        0.87210
H          2.75370       -2.04560       -0.02330
H          5.12090       -1.08090       -0.93590
H          5.11840       -1.07670        0.89150
H          5.40180        1.46140       -0.02760
H          3.71400        3.33480       -0.03430
H          2.22830        2.84880        0.86940
H          2.23080        2.84470       -0.93990
