8
6129	1
F          0.81660        0.03250       -0.05690
C          2.17140        0.01180       -0.05170
C          3.02340        1.08960       -0.04780
O          4.25630        0.62710       -0.04330
N          4.26930       -0.67780       -0.04380
C          2.98840       -1.08750       -0.04900
F          2.59710       -2.38460       -0.05110
H          2.75140        2.13650       -0.04840
