13
6133	1
C          1.13350        0.05510       -0.08100
C          2.62410       -0.03090       -0.08330
N          3.45460        1.02500       -0.09070
O          4.66410        0.53430       -0.09020
N          4.68380       -0.77070       -0.08310
C          3.39900       -1.16290       -0.07850
C          2.93990       -2.58360       -0.06980
H          0.81060        1.11740       -0.08620
H          0.73260       -0.44010        0.82780
H          0.72920       -0.45000       -0.98280
H          3.81340       -3.26890       -0.06770
H          2.32620       -2.78290       -0.97290
H          2.32960       -2.77290        0.83770
