14
6110	1
C          0.93330       -0.03030        0.05410
C          2.42730       -0.07250        0.05850
C          3.28670        1.00850        0.06380
O          4.53150        0.57260        0.06640
C          4.53290       -0.74460        0.06310
C          3.23010       -1.18870        0.05800
N          2.80790       -2.53780        0.05330
H          0.57410        1.02040        0.05570
H          0.54330       -0.54480        0.95700
H          0.54870       -0.54020       -0.85370
H          3.00440        2.05310        0.06560
H          5.42360       -1.35880        0.06420
H          3.50310       -3.29800        0.05340
H          1.80470       -2.77130        0.04970
