11
6248	1
C          1.13290        0.05230        0.09530
C          2.62330       -0.01830        0.09390
N          3.44990        1.04320        0.08850
N          4.68850        0.56240        0.08920
O          4.65430       -0.74140        0.09470
C          3.40850       -1.14000        0.09770
O          2.99940       -2.42110        0.10360
H          0.79950        1.11130        0.09120
H          0.73680       -0.44840        1.00320
H          0.73480       -0.45600       -0.80750
H          3.64380       -3.14210        0.10590
