12
6226	1
C          1.00440        0.00660        0.08310
C          2.49580       -0.03310        0.07940
O          3.27770        1.01780        0.07480
C          4.52420        0.58720        0.07270
N          4.58570       -0.76360        0.07580
C          3.29700       -1.14530        0.08000
O          2.88190       -2.42520        0.08420
H          0.65290        1.05950        0.08150
H          0.61960       -0.50300        0.99090
H          0.61490       -0.50740       -0.82030
H          5.39200        1.23290        0.06890
H          3.52060       -3.15160        0.08430
