17
6280	1
N          1.10590       -0.11570       -0.00730
C          2.56560       -0.04350        0.02240
C          3.16270        1.00490        0.96940
C          4.23180       -0.02750        1.35390
N          5.42370        0.10140        0.50130
C          3.25890       -1.12090        0.86830
O          3.85200       -2.16460        0.14610
H          0.74150        0.75650       -0.45360
H          0.72090       -0.17020        0.96380
H          3.01940        0.03400       -0.99170
H          2.48820        1.13040        1.84920
H          3.47770        1.98660        0.55590
H          4.53230       -0.05340        2.42420
H          5.20090        0.11030       -0.51950
H          6.06140       -0.70520        0.69070
H          2.62720       -1.45680        1.72430
H          3.11120       -2.61600       -0.33470
