18
6270	1
N          1.03260       -0.03130       -0.09720
C          2.49430       -0.01750       -0.11020
C          3.16140        1.04670        0.77610
C          4.20670       -0.00950        1.17700
N          5.37860        0.05250        0.29130
C          3.16750       -1.07760        0.76950
N          3.65640       -2.27380        0.08240
H          0.69110        0.83690       -0.56800
H          0.67410       -0.03080        0.88530
H          2.92340        0.00210       -1.13740
H          2.51650        1.23580        1.66630
H          3.49650        1.99890        0.31270
H          4.53470       -0.00550        2.23950
H          5.13350        0.08160       -0.72400
H          5.98990       -0.77550        0.47320
H          2.53550       -1.31860        1.65680
H          4.17640       -2.02100       -0.78730
H          2.82750       -2.84060       -0.20770
