20
6257	1
C          0.91460       -0.01780       -0.07550
C          2.44050        0.00550       -0.05270
C          3.12010        1.07140        0.81880
C          4.18420        0.02220        1.19090
N          5.33600        0.09670        0.27950
C          3.15030       -1.05340        0.79500
C          3.60530       -2.33880        0.10480
H          0.53680        0.88770       -0.59450
H          0.50380       -0.03950        0.95620
H          0.56540       -0.91940       -0.62080
H          2.87300        0.03510       -1.07860
H          2.49260        1.24920        1.72430
H          3.43580        2.02900        0.35250
H          4.53630        0.02040        2.24560
H          5.06740        0.11920       -0.72990
H          5.95550       -0.72890        0.44500
H          2.53210       -1.27400        1.69830
H          4.20350       -2.12120       -0.80390
H          2.71520       -2.93060       -0.19490
H          4.21830       -2.94090        0.80730
