20
6266	1
C          0.99850        0.03480       -0.07630
C          2.52410        0.03760       -0.05180
C          3.21630        1.10420        0.80930
C          4.26650        0.04450        1.18800
C          5.49380        0.11160        0.25770
C          3.21550       -1.02210        0.81460
N          3.68200       -2.22580        0.12460
H          0.63350        0.93980       -0.60560
H          0.58710        0.03010        0.95560
H          0.63750       -0.86820       -0.61170
H          2.96260        0.05340       -1.07580
H          2.59100        1.29650        1.71340
H          3.53790        2.05570        0.33370
H          4.60370        0.04150        2.24770
H          5.22440        0.14980       -0.81810
H          6.14010       -0.77420        0.43200
H          6.08200        1.02300        0.49470
H          2.60180       -1.25410        1.71750
H          4.17620       -1.98230       -0.76300
H          2.84530       -2.79700       -0.13250
