8
6223	1
F          0.95320        0.10000       -0.06420
C          2.30800        0.08090       -0.05870
C          3.15870        1.15940       -0.05460
N          4.42690        0.69910       -0.04970
O          4.37230       -0.60450       -0.05070
C          3.12680       -1.01790       -0.05610
F          2.74010       -2.31640       -0.05840
H          2.88280        2.20530       -0.05510
