10
6221	1
N          0.92960        0.06630        0.07820
C          2.34180        0.05390        0.08090
C          3.18100        1.14020        0.08320
N          4.45200        0.68560        0.08530
O          4.40560       -0.61990        0.08440
C          3.16250       -1.04280        0.08180
F          2.78440       -2.34420        0.08030
H          0.41890        0.96100        0.07780
H          0.40230       -0.81860        0.07670
H          2.89890        2.18460        0.08330
