11
6206	1
N          1.06060        0.04220       -0.00270
C          2.47320        0.04060        0.00170
C          3.29080        1.14500        0.00540
C          4.58190        0.64670        0.00900
O          4.54510       -0.67190        0.00760
C          3.29110       -1.06270        0.00320
F          2.89150       -2.35770        0.00070
H          0.54290        0.93290       -0.00340
H          0.53970       -0.84650       -0.00520
H          2.99090        2.18450        0.00550
H          5.49090        1.23310        0.01240
