10
6218	2
O          0.99240        0.05250       -0.09500
C          2.33800        0.03560       -0.09210
C          3.19050        1.11400       -0.08830
N          4.45830        0.64620       -0.08630
O          4.39870       -0.65890       -0.08880
C          3.15040       -1.06400       -0.09230
O          2.75720       -2.35000       -0.09540
H          0.50730        0.88950       -0.09450
H          2.91910        2.16120       -0.08700
H          3.41060       -3.06290       -0.09530
