8
6193	1
F          0.95510        0.01490       -0.07450
C          2.30960       -0.01400       -0.07430
N          3.10420        1.07270       -0.07440
N          4.35830        0.63480       -0.07410
N          4.38300       -0.69040       -0.07390
H          5.24910       -1.27290       -0.07370
C          3.11440       -1.12160       -0.07400
F          2.73040       -2.42120       -0.07390
