12
6345	1
O          0.99580       -0.29130        0.25790
C          2.32680       -0.08360       -0.11650
C          3.08000        1.09630        0.72710
N          3.80570        0.04360        1.35590
O          4.74670        0.03450        2.31020
C          3.23230       -0.91950        0.71750
O          3.42210       -2.11950        0.83600
H          0.51660        0.53650       -0.00310
H          2.55060       -0.19160       -1.19960
H          2.44610        1.62500        1.47250
H          3.76830        1.73360        0.13050
H          5.60430        0.12990        1.82240
