20
6296	1
C          0.89190        0.04100        0.14130
C          2.41710       -0.01610        0.01860
N          3.14690        1.07130        0.69410
C          4.06750        0.04740        1.21640
C          5.38870        0.09200        0.43340
C          3.11010       -1.08580        0.84630
C          3.60930       -2.33670        0.12130
H          0.50970        0.93500       -0.39440
H          0.57820        0.09850        1.20530
H          0.44870       -0.86880       -0.31510
H          2.74600       -0.04360       -1.04680
H          2.57820        1.40800        1.50820
H          4.26140        0.11970        2.31130
H          5.21800        0.06310       -0.66370
H          6.02790       -0.76760        0.72510
H          5.92870        1.03140        0.67590
H          2.49920       -1.31810        1.74820
H          4.19310       -2.08020       -0.78650
H          2.73900       -2.95320       -0.18610
H          4.24700       -2.93240        0.80710
