18
6298	1
C          1.08540       -0.09200        0.04680
C          2.61060       -0.10040       -0.08900
N          3.30600        0.97810        0.62790
C          4.22590       -0.04320        1.14620
C          5.57710        0.05050        0.42210
C          3.32760       -1.19520        0.69200
O          3.95780       -2.16460       -0.10070
H          0.67280        0.81200       -0.44790
H          0.78030       -0.08890        1.11510
H          0.66370       -0.99450       -0.44320
H          2.93650       -0.07910       -1.15540
H          2.71520        1.28930        1.43620
H          4.36550       -0.00280        2.25110
H          5.44880        0.03370       -0.68160
H          6.22260       -0.80140        0.72300
H          6.08450        0.99650        0.70510
H          2.74060       -1.58240        1.55520
H          3.22950       -2.63180       -0.58550
