15
6312	1
C          0.95630        0.00020        0.31510
C          2.45280        0.02600        0.00300
C          3.24060        1.12070        0.78840
C          3.96410       -0.02710        1.32620
O          4.88740       -0.05820        2.12430
C          3.25700       -1.12970        0.67640
O          4.07760       -1.81760       -0.22740
H          0.47820        0.92270       -0.07570
H          0.78060       -0.06020        1.41070
H          0.48950       -0.88080       -0.17300
H          2.66800        0.09380       -1.08820
H          2.70100        1.62430        1.61950
H          3.91690        1.75160        0.17330
H          2.71260       -1.77300        1.40300
H          4.74790       -2.30310        0.32050
