13
6344	1
N          1.20170        0.09470        0.33500
N          2.59020        0.03120        0.37840
C          3.51630        1.08100        0.06600
C          4.42270       -0.03560       -0.66750
O          4.44420        0.14680       -2.05650
C          3.28450       -0.88920       -0.22930
O          2.86060       -1.94390       -0.67760
H          0.89970        0.87450        0.96160
H          0.82090       -0.79640        0.72880
H          3.98460        1.47210        0.99550
H          3.04870        1.83800       -0.60340
H          5.39440       -0.28580       -0.18950
H          4.59220       -0.75050       -2.45380
