14
6293	1
O          0.94300        0.00230        0.15580
C          2.33490        0.09300        0.03600
C          3.00570        1.13220        0.94060
C          4.12210        0.11370        1.18760
O          5.09620        0.24900        0.18320
C          3.10110       -0.97280        0.81910
F          3.57730       -2.03780        0.07390
H          0.58840        0.87510       -0.15430
H          2.70820        0.15600       -1.01350
H          2.41300        1.23110        1.88190
H          3.26360        2.12640        0.51740
H          4.58760        0.10640        2.19810
H          5.69360       -0.53850        0.27040
H          2.53370       -1.27750        1.73010
