18
6361	1
C          1.52280        0.18300       -0.41150
C          2.90080       -0.12870        0.18230
C          3.24870       -1.54440        0.62510
C          4.29830       -1.94880       -0.37540
N          5.10090       -0.74790       -0.53680
C          4.11540        0.33160       -0.66050
C          3.75530        1.02720        0.65250
H          1.31680       -0.50170       -1.26100
H          1.45810        1.23150       -0.77380
H          0.74750        0.03030        0.36770
H          2.39030       -2.24900        0.65330
H          3.71020       -1.48990        1.63590
H          3.80690       -2.19320       -1.34730
H          4.89690       -2.82250       -0.04110
H          5.67600       -0.81360       -1.40800
H          3.69320        0.48760       -1.67920
H          3.41390        2.05810        0.42190
H          4.52740        0.82490        1.42560
