15
6359	1
O          1.66440        0.05480       -0.94190
C          2.75020       -0.14250       -0.07690
C          3.06740       -1.56940        0.35170
O          4.27320       -1.96930       -0.24100
C          5.01860       -0.79200       -0.36420
C          4.06780        0.33480       -0.73420
C          3.44190        1.09430        0.42120
H          0.90680        0.30440       -0.35330
H          2.25150       -2.24780        0.02480
H          3.15830       -1.62350        1.45880
H          5.77470       -0.90620       -1.16890
H          5.55570       -0.58870        0.58990
H          3.78180        0.37830       -1.80890
H          3.00920        2.05960        0.08430
H          3.98940        0.99080        1.38200
