17
6373	1
C          1.43430        0.24490       -0.42750
C          2.86110       -0.18720       -0.08070
C          3.17990       -1.56220        0.47550
N          4.41710       -2.00800       -0.17130
C          5.07930       -0.79960       -0.67320
C          4.00990        0.26470       -0.84440
N          3.71630        0.84410        0.50000
H          1.01810       -0.44930       -1.18620
H          1.40320        1.27310       -0.84550
H          0.80220        0.20310        0.48310
H          2.35840       -2.28270        0.26530
H          3.31820       -1.49930        1.57690
H          4.12680       -2.55560       -1.01670
H          5.57690       -1.01170       -1.64500
H          5.85520       -0.45660        0.04660
H          4.20650        1.15360       -1.48450
H          3.27220        1.78310        0.36690
