14
6315	1
C          1.01090       -0.08150        0.10150
C          2.52770       -0.08320       -0.08900
C          3.26520        1.04920        0.69070
C          3.93360       -0.07190        1.34430
O          4.79400       -0.06540        2.21020
C          3.26370       -1.20100        0.71010
F          4.15320       -1.93990       -0.04940
H          0.57590        0.81840       -0.38140
H          0.74690       -0.07450        1.18090
H          0.57560       -0.98770       -0.36930
H          2.83430       -0.08740       -1.15990
H          2.67080        1.60090        1.45070
H          3.99070        1.64150        0.09330
H          2.67720       -1.77390        1.46040
