14
6292	1
N          1.05060       -0.02700        0.07170
C          2.51180       -0.01290        0.07890
C          3.16880        1.04790        0.96850
C          4.21250       -0.01020        1.33560
F          5.23240        0.01080        0.39340
C          3.17800       -1.07430        0.95620
F          3.67130       -2.18030        0.28670
H          0.71490        0.82590       -0.42880
H          0.67990        0.00180        1.04870
H          2.96400       -0.00320       -0.94140
H          2.53530        1.22930        1.86900
H          3.50880        1.99860        0.50590
H          4.62780       -0.01400        2.36580
H          2.54950       -1.31960        1.84380
