16
6288	1
C          0.89000       -0.08180        0.12010
C          2.41380       -0.03040        0.07130
C          3.11620        1.01480        0.93960
C          4.22440       -0.01950        1.17870
O          5.18200        0.09000        0.15540
C          3.18300       -1.10160        0.84350
F          3.62940       -2.17650        0.09400
H          0.47190        0.83260       -0.35040
H          0.53060       -0.14390        1.16930
H          0.53020       -0.97190       -0.43710
H          2.80840        0.03640       -0.97070
H          2.55150        1.13860        1.89450
H          3.37780        1.99800        0.49360
H          4.70880       -0.01980        2.18030
H          5.77030       -0.70440        0.24200
H          2.63670       -1.39350        1.77090
