17
6354	1
N          1.58500        0.24430       -0.71390
C          2.77020       -0.09370        0.07430
C          3.04880       -1.56520        0.38210
N          4.15370       -1.97510       -0.46920
C          5.00050       -0.79200       -0.47980
C          4.07620        0.41860       -0.61230
C          3.54060        1.05080        0.66490
H          0.74080        0.01960       -0.14030
H          1.56060       -0.35580       -1.57060
H          2.15510       -2.20750        0.22550
H          3.35800       -1.65720        1.44730
H          3.77870       -2.10780       -1.43930
H          5.73140       -0.83020       -1.31600
H          5.57540       -0.74260        0.47270
H          3.73480        0.64080       -1.64720
H          3.14210        2.06770        0.46630
H          4.15780        0.81990        1.55910
