17
6402	1
F          2.71990        1.72650       -0.97660
C          2.20330        0.56950       -1.53170
C          2.80600       -0.66620       -0.86520
C          4.32270       -0.74670       -1.08300
C          5.21340        0.21280       -0.31570
N          6.10310       -0.87580        0.10280
C          5.06960       -1.82580       -0.32300
H          2.41360        0.55930       -2.62250
H          1.10280        0.56690       -1.38390
H          2.34000       -1.57050       -1.31210
H          2.56950       -0.65110        0.22120
H          4.64520       -0.77510       -2.14860
H          4.70040        0.63880        0.58010
H          5.70950        0.97820       -0.95040
H          6.19690       -0.88680        1.14650
H          4.50150       -2.18210        0.57020
H          5.45280       -2.65090       -0.96110
