18
6420	1
C          3.85230       -2.07400        0.15780
O          4.87620       -1.10960        0.07470
C          4.34140        0.09800       -0.42740
C          5.43980        1.16640       -0.55680
C          6.27040        1.46020        0.67990
C          7.42720        1.43290       -0.30580
N          6.61770        0.79080       -1.34950
H          4.29560       -3.02180        0.52490
H          3.41300       -2.28880       -0.84210
H          3.07170       -1.77080        0.89060
H          3.56480        0.49900        0.26310
H          3.91010       -0.05490       -1.44290
H          5.03090        2.11650       -0.97730
H          6.34580        0.55290        1.31850
H          6.07510        2.40740        1.22610
H          8.32160        0.85870        0.02450
H          7.67970        2.46350       -0.64850
H          6.78190       -0.24040       -1.26260
