17
6477	1
N          0.92790        1.75540       -0.95620
N          2.29900        1.65240       -0.95600
C          2.88320        0.50640       -0.96100
C          4.38060        0.43230       -0.96240
C          5.10580        0.88700        0.30440
C          6.11000       -0.23800        0.04000
C          5.02040       -0.94360       -0.77170
H          0.48710        2.68570       -0.95200
H          0.33040        0.91450       -0.96000
H          2.29970       -0.41100       -0.96760
H          4.83770        0.92990       -1.85080
H          4.49990        0.60720        1.19930
H          5.47580        1.93240        0.36470
H          6.56480       -0.76710        0.90410
H          6.88750        0.14060       -0.66550
H          4.40250       -1.54820       -0.06540
H          5.31450       -1.52770       -1.66920
