15
6444	2
O          1.03340        0.76860        0.90820
C          2.24340        0.62550        0.83280
N          2.98330        1.47480        0.08150
C          4.41860        1.30600       -0.02020
C          5.16830        2.45010       -0.67660
N          6.09700        2.55330        0.45400
C          5.20020        1.68360        1.22240
H          2.71960       -0.18800        1.37270
H          2.51720        2.23920       -0.43140
H          4.75530        0.32710       -0.42940
H          4.55900        3.38280       -0.74610
H          5.66910        2.17040       -1.62820
H          6.07860        3.52400        0.84800
H          4.59420        2.29850        1.93070
H          5.72240        0.82830        1.70230
