15
6462	1
O          2.41970        1.49700       -0.96100
C          2.14660        0.36640       -0.58730
C          3.21410       -0.68040       -0.40950
C          4.62650       -0.17540       -0.75030
C          5.20510        0.82020        0.23470
C          6.27940       -0.23280        0.38450
O          5.60930       -1.13820       -0.46050
H          1.11310        0.10880       -0.38160
H          2.97500       -1.53450       -1.07770
H          3.18750       -1.04250        0.64110
H          4.73890        0.16090       -1.80670
H          4.61090        0.89590        1.17230
H          5.56470        1.76040       -0.23630
H          6.35830       -0.62560        1.42210
H          7.24270        0.07170       -0.08260
