17
6434	2
N          0.98520       -0.38650        1.50650
C          2.23690       -0.54710        1.27700
N          3.16930        0.43170        1.70480
C          4.58170        0.26130        1.44340
C          5.51400        1.26270        2.12710
C          6.47540        0.09190        2.34820
C          5.27110       -0.84710        2.23870
H          0.30290       -1.09420        1.19840
H          2.58150       -1.43580        0.75400
H          2.83470        1.27540        2.19490
H          4.82860        0.18020        0.35830
H          5.09220        1.55120        3.11930
H          5.86770        2.14470        1.55250
H          7.09250        0.06960        3.27140
H          7.10220       -0.02900        1.43260
H          4.80000       -0.92630        3.24750
H          5.40820       -1.84150        1.76380
