18
6425	1
C          2.20030        0.35990        0.93740
N          3.30100        1.29740        0.71360
C          4.28370        0.73190       -0.22140
C          5.44340        1.70600       -0.49690
C          5.03540        3.09690       -0.93540
C          5.73630        3.50220        0.34420
O          6.04800        2.17120        0.68380
H          1.46510        0.81660        1.63270
H          2.57400       -0.58480        1.38920
H          1.67910        0.13710       -0.01820
H          3.76290        1.47790        1.63550
H          3.79170        0.49890       -1.19170
H          4.70720       -0.20880        0.19630
H          6.21320        1.27270       -1.17480
H          3.94310        3.29750       -0.87750
H          5.58530        3.43520       -1.84060
H          5.04070        3.94220        1.09300
H          6.66640        4.08430        0.15900
