19
6396	1
C          1.36290        0.17430        1.71030
O          2.70930       -0.08770        2.03330
C          3.53540        0.34960        0.97660
C          4.99280        0.07440        1.34370
C          5.45080       -1.38400        1.40900
C          6.79060       -0.90780        0.84140
C          6.05250        0.30310        0.26440
H          0.72870       -0.17320        2.55150
H          1.04510       -0.39290        0.80730
H          1.17890        1.26560        1.59340
H          3.43190        1.44790        0.82340
H          3.29350       -0.19480        0.03470
H          5.30730        0.59890        2.27820
H          4.93010       -1.97400        0.61770
H          5.43940       -1.90590        2.38920
H          7.35050       -1.57500        0.15230
H          7.43000       -0.56160        1.68800
H          5.63980        0.01370       -0.73120
H          6.57630        1.28160        0.22640
