18
6487	1
C          0.94430        1.68940       -0.21410
C          2.44070        1.77690       -0.14620
C          3.22490        0.86780       -0.74270
C          4.72770        0.97740       -0.66070
C          5.33060        0.75640        0.71460
C          6.32530       -0.09980       -0.04960
N          5.47350       -0.14510       -1.24430
H          0.54650        2.60800       -0.69310
H          0.53720        1.61200        0.81560
H          0.60450        0.80710       -0.79810
H          2.88930        2.60080        0.40310
H          2.78020        0.04420       -1.29520
H          5.10710        1.92390       -1.11440
H          4.67670        0.07470        1.30430
H          5.71600        1.63940        1.26730
H          6.55710       -1.08660        0.40980
H          7.24150        0.48510       -0.29840
H          4.89890       -1.01870       -1.16380
