18
6404	1
C          1.41410       -1.09930        2.50880
O          2.81720       -1.19880        2.59090
C          3.38660       -0.80990        1.35990
C          4.90900       -0.86590        1.48590
C          5.55700       -2.23280        1.58610
N          6.55490       -1.88200        0.56980
C          5.72710       -0.72280        0.21760
H          0.98320       -1.46420        3.46360
H          1.00400       -1.74760        1.70230
H          1.09310       -0.04130        2.38610
H          3.11220        0.24040        1.10980
H          3.06390       -1.49630        0.54340
H          5.33910       -0.20210        2.27050
H          4.89500       -3.04200        1.19460
H          5.99070       -2.45820        2.58400
H          6.54480       -2.58470       -0.20670
H          5.13160       -0.95560       -0.69750
H          6.29510        0.22960        0.14680
