14
6453	2
O          1.10170        1.45140        1.79820
C          2.16570        1.67130        1.24180
N          3.13310        0.72380        1.22430
C          4.39600        0.97480        0.55670
C          5.30440        1.91300        1.31490
O          6.28900        0.91860        1.47820
C          5.47190       -0.04470        0.85420
H          2.32880        2.63230        0.76220
H          2.95920       -0.18650        1.67820
H          4.32060        1.21250       -0.52780
H          4.90840        2.21170        2.31160
H          5.67830        2.74800        0.68290
H          5.17950       -0.81950        1.59730
H          5.95440       -0.43580       -0.06820
