17
6491	1
C          1.04520       -0.10890        0.21030
C          2.53920       -0.14630        0.08400
C          3.28140       -1.01520        0.78530
C          4.77970       -1.03770        0.64150
C          5.48010        0.16730        1.23100
C          6.18760       -0.88230        2.05860
O          5.38770       -1.92330        1.54820
H          0.73330        0.89780        0.55790
H          0.66830       -0.86600        0.93100
H          0.58960       -0.30620       -0.78220
H          3.02130        0.55200       -0.59470
H          2.80550       -1.71810        1.46390
H          5.12490       -1.26850       -0.39220
H          4.81160        0.77200        1.88420
H          6.14230        0.70470        0.51860
H          6.03890       -0.74520        3.15220
H          7.24300       -1.03570        1.73950
