16
6569	2
C          0.82170        0.06860       -0.18880
C          2.33750       -0.05950       -0.02900
C          2.91470       -1.05520       -1.00980
C          3.22510        0.44540       -1.16330
N          4.51280        0.86270       -0.64480
C          4.61670        1.87560        0.25030
O          5.71290        2.21910        0.66280
H          0.32770       -0.82780        0.24110
H          0.51440        0.17140       -1.25240
H          0.47590        0.96530        0.36560
H          2.76990       -0.24240        0.97870
H          2.38290       -1.31670       -1.94950
H          3.86710       -1.56420       -0.74780
H          2.62960        1.20620       -1.71320
H          5.36570        0.39340       -0.98580
H          3.72800        2.38940        0.60570
