16
6500	1
C          0.89160       -0.05010        0.04360
C          2.35450       -0.05000        0.03550
C          3.56050       -0.04980        0.01760
C          5.02980       -0.04910       -0.02380
C          5.72400        0.97040        0.86090
N          6.61390       -0.04990        1.42230
C          5.72530       -1.06990        0.85840
H          0.51800        0.27190       -0.95040
H          0.52450        0.65090        0.82110
H          0.52250       -1.07330        0.26230
H          5.48590       -0.04770       -1.03860
H          5.05490        1.36260        1.66620
H          6.25830        1.76820        0.29920
H          6.55370       -0.05200        2.46790
H          5.05650       -1.46480        1.66260
H          6.26050       -1.86590        0.29490
