20
6554	1
C          1.18580       -0.29020       -0.68840
C          2.70440       -0.18160       -0.58250
C          3.13600        0.23850        0.82420
N          4.60460        0.38070        0.86480
C          5.13390        0.29690        2.25650
C          5.27010       -0.84490        1.34640
C          6.64040       -1.03730        0.70380
H          0.90560       -0.59540       -1.71850
H          0.71220        0.68980       -0.46650
H          0.80240       -1.05090        0.02450
H          3.06530        0.56820       -1.31970
H          3.15500       -1.16770       -0.82850
H          2.73830       -0.49760        1.56280
H          2.68360        1.22620        1.06030
H          4.32070        0.27920        3.01580
H          5.98380        1.00600        2.34740
H          4.60300       -1.72150        1.50390
H          7.17780       -0.07470        0.56070
H          6.51200       -1.51970       -0.28730
H          7.25570       -1.69970        1.34710
