14
6494	1
O          0.90270       -0.04400       -0.64330
N          2.20470       -0.23120       -0.62750
C          3.00440        0.74660       -0.85620
C          4.48910        0.52370       -0.83250
C          5.00840       -0.30680       -1.98520
C          5.84360        0.92580       -2.25260
O          5.20530        1.66360       -1.23670
H          0.30580       -0.78430       -0.47050
H          2.61080        1.73890       -1.06200
H          4.87020        0.17100        0.15280
H          4.25580       -0.43390       -2.79550
H          5.60160       -1.19440       -1.67670
H          5.65950        1.36440       -3.25800
H          6.91490        0.77990       -1.98800
