14
6586	1
F          0.94420        1.39330       -0.87570
C          1.25060        0.06930       -0.61410
C          1.30650       -0.64800       -1.95000
C          2.58180       -0.43440       -1.14840
O          2.97150       -1.49560       -0.36350
C          4.14590       -2.12930       -0.57590
C          4.49900       -3.15380        0.19870
H          0.53240       -0.53300       -0.01770
H          1.47820       -0.07350       -2.88490
H          1.15600       -1.74870       -1.99410
H          3.23430        0.46590       -1.15020
H          4.80830       -1.80950       -1.37710
H          3.84910       -3.48560        1.00250
H          5.44160       -3.66430        0.02990
