17
6499	1
C          1.00700       -0.04540        0.05190
C          2.46950       -0.04540        0.08030
C          3.67470       -0.04540        0.10490
C          5.14310       -0.04540        0.13690
C          5.80360        1.01410        1.02180
C          6.84330       -0.04550        1.38900
C          5.80360       -1.10510        1.02170
H          0.65610        0.32240       -0.93420
H          0.62170        0.61860        0.85270
H          0.63390       -1.07730        0.21590
H          5.61330       -0.04540       -0.87440
H          5.17000        1.20140        1.92230
H          6.14830        1.96150        0.55590
H          7.27320       -0.04550        2.41310
H          7.64030       -0.04550        0.60770
H          5.17000       -1.29240        1.92220
H          6.14830       -2.05240        0.55580
