17
6534	1
C          1.96350        0.63800       -1.76900
C          2.89430        0.87550       -0.58960
O          4.07910        0.13990       -0.78580
C          4.92360        0.38330        0.31180
C          6.33090       -0.01860       -0.10140
C          5.99620        1.44840        0.09990
O          6.31830        1.98210        1.35100
H          1.02280        1.21090       -1.62740
H          1.71840       -0.44240       -1.84910
H          2.44980        0.97130       -2.71040
H          2.36910        0.53780        0.33380
H          3.10590        1.96840       -0.53840
H          4.75610       -0.23660        1.21970
H          6.60080       -0.09240       -1.17650
H          7.07850       -0.27540        0.68020
H          5.58990        2.14380       -0.66550
H          7.28480        2.19620        1.29910
