17
6514	1
O          2.76620       -0.87550        1.92710
C          2.39870       -0.45940        0.64070
C          2.93680       -1.43940       -0.40000
C          4.46960       -1.50990       -0.34100
C          5.05480       -2.16990       -1.57560
C          5.25700       -0.66700       -1.33020
O          6.51200       -0.32650       -0.80810
H          2.39110       -0.20140        2.55140
H          2.81030        0.55440        0.43470
H          1.28910       -0.43560        0.56030
H          2.58650       -1.11290       -1.40480
H          2.52020       -2.45070       -0.20260
H          4.97750       -1.90240        0.56680
H          4.48810       -2.21660       -2.53000
H          6.05520       -2.64670       -1.49270
H          4.61240        0.13090       -1.75960
H          6.33570        0.27130       -0.03580
