14
6564	1
O          1.07480        0.20590       -0.30910
C          2.44580        0.07700       -0.06690
C          3.25350       -0.73880       -1.09350
C          3.18420        0.76800       -1.20030
C          4.49810        1.47170       -0.85660
C          4.20850        2.87910       -0.57280
N          3.97490        3.98880       -0.34230
H          0.65290       -0.53440        0.19540
H          2.84400        0.46260        0.89680
H          2.52390       -1.34290       -1.67430
H          4.05780       -1.22540       -0.50080
H          2.62310        1.05520       -2.11700
H          5.18990        1.41080       -1.72290
H          4.99830        1.02210        0.02870
