14
6573	2
O          0.92770        0.23040       -0.21430
C          2.28320       -0.06300       -0.01090
C          2.77760       -1.00220       -1.09860
C          3.22600        0.45590       -1.09710
N          4.53780        0.70350       -0.53260
C          4.71870        1.61150        0.45770
O          5.83510        1.81280        0.90840
H          0.43540       -0.62200       -0.08690
H          2.59760       -0.49140        0.96590
H          2.20480       -1.11680       -2.04330
H          3.67660       -1.62480       -0.90110
H          2.70220        1.31290       -1.57380
H          5.35040        0.19390       -0.91230
H          3.87460        2.16700        0.85630
