19
6521	1
C          1.58340       -0.70730        0.29400
N          2.99920       -0.36420        0.42780
C          3.49170        0.29530       -0.78450
C          4.95630        0.70320       -0.58550
C          6.03410       -0.25250       -1.06050
C          5.65720        0.97640       -1.90890
N          6.78200        1.91170       -1.89480
H          1.23820       -1.21180        1.22060
H          1.42200       -1.39660       -0.56350
H          0.97440        0.21130        0.15470
H          3.53810       -1.25020        0.57400
H          2.90520        1.22090       -0.97470
H          3.37160       -0.38050       -1.66290
H          5.21430        1.45340        0.19290
H          5.54530       -1.22810       -1.26890
H          6.84120       -0.18010       -0.30020
H          5.38870        0.54200       -2.89610
H          6.95390        2.30910       -0.94270
H          6.54040        2.70780       -2.52620
