14
6566	1
F          0.74160        0.18780       -0.69940
C          2.03780        0.07030       -0.22820
C          2.98010       -0.80090       -1.06900
C          2.96420        0.70450       -1.24880
C          4.27390        1.34280       -0.75520
C          4.16290        2.83640       -0.62230
O          3.11850        3.42070       -0.86840
H          2.29190        0.52180        0.75450
H          2.31540       -1.42550       -1.70310
H          3.63500       -1.28560       -0.31380
H          2.58220        0.94220       -2.26550
H          5.07620        1.11450       -1.48840
H          4.57780        0.93100        0.23220
H          5.02830        3.40540       -0.29940
