15
6488	1
F          0.79020       -0.15980       -1.29000
C          2.14190       -0.08700       -1.40140
C          2.91710       -0.90470       -0.68470
C          4.42030       -0.83980       -0.79830
C          5.07040        0.41860       -0.25300
C          6.05150       -0.56310        0.36350
N          5.16050       -1.70580        0.12890
H          2.58220        0.63910       -2.07840
H          2.45650       -1.62580       -0.01600
H          4.77410       -1.05470       -1.83460
H          4.44560        0.83610        0.56880
H          5.46020        1.16570       -0.97710
H          6.31370       -0.37170        1.42740
H          6.94980       -0.68450       -0.28600
H          4.59980       -1.82840        1.00640
