17
6674	1
C          2.54700       -1.09010        0.86970
C          2.38250        0.16130        0.00110
O          1.01900        0.46480       -0.17050
C          3.16810        1.35600        0.58510
C          2.97770        2.67050       -0.14250
C          2.50590        3.13930        1.21670
O          2.61450        1.85230        1.77880
H          2.00670       -1.94300        0.40700
H          2.13760       -0.91760        1.88800
H          3.62150       -1.35840        0.95640
H          2.80950       -0.06820       -0.99900
H          0.62380        0.61310        0.72810
H          4.24940        1.13430        0.73970
H          2.12780        2.65990       -0.85930
H          3.92900        3.14290       -0.47000
H          1.45080        3.49130        1.21000
H          3.23250        3.82520        1.70690
