16
6684	2
N          2.95720        1.30420       -0.12680
C          2.33630        0.14360        0.18720
O          1.12870        0.04040        0.02840
C          3.12650       -1.02080        0.73110
C          2.63780       -1.67100        2.02680
C          3.09510       -3.00800        1.43590
C          2.95850       -2.37850        0.04640
H          2.41710        2.09970       -0.49850
H          3.97440        1.40780        0.00090
H          4.21760       -0.80290        0.82990
H          1.52230       -1.66960        2.05140
H          3.07320       -1.33580        2.99190
H          2.51560       -3.92610        1.67010
H          4.18070       -3.13990        1.65880
H          1.90070       -2.50450       -0.28560
H          3.67850       -2.67150       -0.74670
