14
6590	1
O          0.79220       -0.00920        0.09450
C          2.14210       -0.37090        0.12870
C          2.74920       -0.78540       -1.20380
C          2.91740        0.64280       -0.70200
O          4.22490        0.84340       -0.31340
N          5.21380        0.73370       -1.17810
C          6.42650        0.91640       -0.80330
H          0.29470       -0.86630        0.11860
H          2.64150       -0.39290        1.12170
H          1.89520       -1.02950       -1.87180
H          3.48630       -1.57070       -0.93150
H          2.51620        1.28360       -1.51680
H          7.23300        0.82390       -1.52210
H          6.65490        1.16330        0.22970
