16
6649	1
C          0.93740       -0.02390        0.05130
C          2.39820        0.02940        0.10300
C          3.60170        0.08360        0.14680
C          5.07020        0.16860        0.20430
N          5.72300       -0.58300       -0.90260
C          5.70820        0.88830       -0.89480
C          7.08700        1.47180       -0.60370
H          0.52210        0.28070        1.03400
H          0.61130       -1.05770       -0.18450
H          0.57050        0.66850       -0.73430
H          5.60500       -0.04640        1.15350
H          5.01750       -0.89890       -1.60930
H          5.08440        1.30950       -1.71680
H          7.62350        0.91080        0.19250
H          6.97270        2.52770       -0.28190
H          7.69840        1.44500       -1.52950
