14
6626	1
O          1.02190        0.58850        0.24150
N          2.32920        0.73010        0.27660
C          2.98470        0.98370       -0.79870
C          4.47640        1.15670       -0.75700
C          5.10430       -0.12610       -0.22180
C          5.31250        0.27240       -1.67500
O          6.50610        0.94500       -1.95430
H          0.53440        0.39740        1.05390
H          2.46210        1.09210       -1.74540
H          4.90300        1.96360       -0.12300
H          4.58210       -1.10460       -0.29550
H          6.10600       -0.07670        0.25760
H          4.66080        0.00770       -2.53600
H          7.19200        0.23330       -2.03010
