15
6600	1
C          1.13220        0.15940       -0.10320
N          2.59590        0.18580        0.05310
C          3.28780       -0.68980       -0.93660
C          3.25360        0.76320       -1.13320
C          4.54070        1.50920       -0.78430
C          4.23890        2.92320       -0.54660
N          3.99850        4.04040       -0.36410
H          0.72200       -0.68690        0.48640
H          0.78010        0.05140       -1.15490
H          0.71040        1.09920        0.30980
H          2.56810       -1.32720       -1.49740
H          4.17520       -1.13630       -0.44030
H          2.59640        1.11450       -1.96070
H          5.24550        1.43600       -1.63810
H          5.03160        1.08840        0.12080
