19
6658	1
C          3.43180       -1.10370       -0.34790
C          2.47240        0.03750        0.01060
N          2.08860       -0.03150        1.42380
C          3.09590        1.40060       -0.35580
C          2.38220        2.68010        0.02990
N          3.65190        3.31540        0.40420
C          4.26280        1.98040        0.42180
H          2.95630       -2.08510       -0.13470
H          4.37090       -1.02530        0.24040
H          3.68330       -1.06660       -1.42930
H          1.55240       -0.07720       -0.60470
H          2.93470       -0.05560        2.03630
H          1.55510       -0.91610        1.59170
H          3.34620        1.47530       -1.43970
H          1.75240        2.55350        0.94300
H          1.84500        3.17830       -0.80530
H          3.59650        3.71170        1.37120
H          4.30990        1.61910        1.47430
H          5.23990        1.91500       -0.10130
