16
6713	1
N          1.81140       -0.06930        0.50400
C          3.04990       -0.24300       -0.17020
N          3.91650       -1.08100        0.27720
N          3.33740        0.50890       -1.34300
C          2.56250        1.47540       -2.01990
C          3.75490        1.58170       -3.02180
C          4.48530        0.50030       -2.16510
H          1.59690       -0.61090        1.35400
H          1.11300        0.59990        0.15080
H          3.73400       -1.63850        1.12460
H          2.41330        2.36750       -1.37390
H          1.64340        1.00770       -2.43440
H          4.26060        2.56970       -2.96190
H          3.48500        1.19950       -4.03000
H          5.36600        0.86940       -1.59620
H          4.59650       -0.49030       -2.65660
