15
6692	1
F          0.96400        0.73510        0.87080
C          1.68930       -0.11220        0.09250
C          1.48000       -0.13280       -1.22610
C          2.72600       -1.01060        0.71400
C          2.76030       -1.12490        2.22630
N          2.81640       -2.58940        2.15800
C          2.42390       -2.49570        0.74750
H          0.73450        0.51930       -1.66950
H          2.05010       -0.79820       -1.86800
H          3.76330       -0.85570        0.33970
H          1.79890       -0.81520        2.70210
H          3.65580       -0.66490        2.69670
H          2.03990       -3.01000        2.72210
H          1.33040       -2.70290        0.65070
H          3.05360       -3.10470        0.06390
