13
6770	1
O          1.12720        0.01670        0.19140
C          2.51240       -0.17020        0.15460
C          3.08860       -0.57300       -1.19360
C          3.10820        0.89100       -0.76490
C          4.53570        1.30070       -0.53410
O          4.90860        1.78370        0.66970
O          5.35180        1.21950       -1.44070
H          0.74570       -0.89440        0.27540
H          3.06380       -0.10480        1.11730
H          2.23190       -0.94720       -1.79500
H          3.91140       -1.26990       -0.92360
H          2.52710        1.41770       -1.55220
H          5.82060        2.06100        0.83690
