14
6753	1
C          1.17310        0.06280       -0.09860
N          2.63520        0.06260        0.08040
C          3.32840       -0.78770       -0.93150
C          3.32070        0.67340       -1.07290
C          4.59520        1.42100       -0.67030
F          4.26360        2.70950       -0.29640
F          5.25830        0.80770        0.38070
H          0.73990       -0.78060        0.47840
H          0.83550       -0.03210       -1.15640
H          0.75940        1.00660        0.31360
H          2.60890       -1.39140       -1.52790
H          4.19370       -1.27500       -0.43590
H          2.66230        1.09400       -1.86590
H          5.27600        1.46860       -1.54530
