15
6719	1
C          1.04400        0.11600       -0.14280
C          2.56360        0.09040        0.03240
C          3.38540       -0.67250       -1.01460
C          3.29960        0.85750       -1.04490
C          4.63000        1.53720       -0.69410
F          4.39800        2.87570       -0.44160
F          5.24840        0.97300        0.41010
H          0.59860       -0.71700        0.43930
H          0.73450        0.01030       -1.20530
H          0.64720        1.07600        0.24800
H          3.00750        0.23140        1.04120
H          2.68130       -1.25190       -1.64910
H          4.17900       -1.19190       -0.43640
H          2.75770        1.17370       -1.96260
H          5.31550        1.45450       -1.56330
