15
6759	1
C          1.11510       -0.06950       -0.07440
C          2.64070       -0.17780       -0.08470
C          3.31450       -0.68520       -1.34410
C          3.27700        0.82490       -1.03130
C          4.66630        1.29020       -0.70370
O          4.91480        1.87100        0.48900
O          5.56490        1.16320       -1.52250
H          0.69000       -0.99120        0.37390
H          0.69010        0.05760       -1.09380
H          0.81350        0.80000        0.54620
H          3.19580       -0.24040        0.87720
H          2.52410       -1.12030       -1.99270
H          4.14620       -1.32600       -0.97820
H          2.75790        1.27640       -1.90400
H          5.80130        2.18480        0.71750
