17
6742	1
C          3.30470       -0.91710        0.50200
C          2.37010        0.15110       -0.05390
F          1.45380        0.49660        0.92840
C          3.19260        1.36020       -0.54640
N          2.39090        2.58110       -0.80640
C          3.33060        2.51660        0.33540
C          4.54600        3.40990        0.10530
H          2.71440       -1.79890        0.82940
H          3.86720       -0.51950        1.37380
H          4.02580       -1.24300       -0.27790
H          1.81630       -0.27360       -0.91810
H          3.93260        1.21580       -1.36300
H          1.42220        2.47640       -0.42650
H          2.79730        2.55470        1.31150
H          4.93500        3.33700       -0.93370
H          5.35140        3.11620        0.80970
H          4.26600        4.46550        0.30340
