14
6764	1
N          1.04190       -0.15760        0.05260
C          2.49870       -0.30370        0.01450
C          3.13290       -0.71260       -1.30710
C          3.09540        0.76390       -0.89770
C          4.49940        1.21790       -0.61400
O          4.80730        1.72860        0.59670
O          5.35500        1.14690       -1.48430
H          0.65160       -0.98900        0.55040
H          0.61360       -0.12540       -0.90170
H          3.03870       -0.26610        0.98540
H          2.32380       -1.12520       -1.94620
H          3.97300       -1.37370       -1.00250
H          2.53680        1.26170       -1.71930
H          5.70320        2.03430        0.79760
