18
6730	1
C          1.01400       -0.06400        0.10370
C          2.53540        0.10850        0.01910
C          3.15290       -0.11200        1.41520
C          3.07600       -0.78330       -1.13570
C          4.48790       -1.33630       -1.14890
C          3.30060       -2.24250       -0.77910
F          3.11020       -3.13510       -1.81890
H          0.58640        0.62740        0.86120
H          0.75410       -1.10740        0.38480
H          0.54420        0.16960       -0.87570
H          2.73890        1.16290       -0.26850
H          2.96310       -1.13940        1.78770
H          2.69950        0.59790        2.13970
H          4.24190        0.08950        1.41810
H          2.59290       -0.68820       -2.13350
H          5.07730       -0.83440       -0.36040
H          4.83030       -1.32430       -2.20600
H          3.59600       -2.66130        0.20430
