15
6706	1
C          1.93620        1.39270        0.08540
C          2.78630        0.16010        0.11200
O          2.95900       -0.43630        1.16510
C          3.41890       -0.34700       -1.15990
C          4.90990       -0.59190       -1.06960
C          4.50740       -2.01120       -1.40840
O          3.13280       -1.70390       -1.38670
H          1.54740        1.62460        1.10000
H          1.07720        1.23810       -0.60050
H          2.53970        2.25310       -0.27210
H          3.15490        0.25090       -2.06230
H          5.30920       -0.53950       -0.03250
H          5.48840       -0.09800       -1.88000
H          4.76930       -2.73670       -0.60700
H          4.81270       -2.30780       -2.43670
