13
6709	1
O          2.51690       -0.92410       -0.01110
C          1.82110        0.22370       -0.16910
O          0.64510        0.25880        0.15500
C          2.46640        1.46030       -0.74750
C          2.63210        2.58730        0.24740
C          4.08410        2.48670       -0.16300
O          3.85360        1.33890       -0.94620
H          3.44800       -0.99880       -0.26020
H          1.98690        1.80150       -1.69330
H          2.52160        2.24070        1.29960
H          2.13540        3.53820       -0.04220
H          4.76380        2.27810        0.69220
H          4.39850        3.32590       -0.82350
