16
6762	1
N          0.91980       -0.14240       -0.02030
C          2.38210       -0.17590        0.05120
C          3.14010       -0.54520       -1.21210
C          2.97440        0.92990       -0.81970
C          4.32500        1.48510       -0.43480
N          5.40100        1.44240       -1.35770
N          4.50090        2.02480        0.71910
H          0.56020       -1.02690        0.40360
H          0.56440       -0.08890       -1.00300
H          2.85040       -0.14600        1.05830
H          2.41110       -1.01120       -1.90870
H          4.00170       -1.14280       -0.84370
H          2.45600        1.38060       -1.69310
H          5.27130        1.02880       -2.29240
H          6.32170        1.82800       -1.10200
H          3.73470        2.08620        1.40590
