16
6814	1
C          1.56520       -0.05480       -0.09830
C          0.75320        1.24760        0.19560
N         -0.70150        1.04680       -0.06350
C         -1.12570       -0.02900        0.86160
C         -0.59800       -1.07210       -0.10450
C         -0.85600        0.04000       -1.13420
O          0.80080       -1.22890        0.19640
H          2.52210       -0.04140        0.46430
H          1.83720       -0.09840       -1.17480
H          1.16180        2.09350       -0.39700
H          0.87810        1.52220        1.26750
H         -2.24270       -0.04170        0.91670
H         -0.69180       -0.04040        1.88840
H         -1.11200       -2.05010       -0.21220
H         -1.91970        0.03860       -1.48050
H         -0.18890        0.11400       -2.02060
