16
6878	1
F          1.01330        0.03990        0.14380
C          2.39830        0.00970        0.10620
C          2.97020       -1.10800        0.98240
C          3.75240       -0.23940        1.96870
C          4.44560        0.75470        1.03960
C          2.99950        1.20550        0.84560
C          2.73690        0.84880        2.30770
H          2.76070       -0.04250       -0.94440
H          3.64950       -1.78120        0.41420
H          2.18040       -1.69190        1.50520
H          4.30560       -0.79190        2.75730
H          5.01300        0.36720        0.16200
H          5.04600        1.50690        1.60550
H          2.74670        2.20310        0.42820
H          1.70930        0.54910        2.61700
H          3.15850        1.61130        3.00590
