16
6843	1
O          1.11260       -0.20890        0.51230
C          2.47300       -0.10800        0.14200
C          2.97930       -1.42650       -0.37440
C          2.40460       -1.49030       -1.79730
C          3.21190       -0.89490       -2.87020
N          2.18660       -0.06380       -2.22510
C          2.67190        0.74970       -1.09480
H          0.53470       -0.21620       -0.29430
H          3.03210        0.27070        1.02410
H          2.69980       -2.28900        0.26690
H          4.09130       -1.38930       -0.43430
H          1.39760       -1.93760       -1.93790
H          2.89840       -1.20380       -3.88860
H          4.26040       -0.60170       -2.64430
H          2.11070        1.70430       -1.01060
H          3.74830        1.00910       -1.22270
