14
6865	1
F          1.00360        0.01960       -0.64680
C          2.28690       -0.02480       -0.20380
C          3.01260        1.05210        0.01070
C          4.39640        0.75280        0.48000
C          5.22780       -0.10450       -0.46140
C          4.37220       -0.78190        0.60080
C          3.01160       -1.28230        0.09150
H          2.64180        2.05560       -0.15020
H          4.71210        1.09220        1.48880
H          6.29130        0.11210       -0.22610
H          4.84310       -0.04000       -1.50340
H          5.08890       -1.47800        1.08570
H          2.48080       -1.82790        0.89940
H          3.11320       -1.92790       -0.80680
