17
6864	1
C          0.99410        0.09910       -0.26540
C          2.46060        0.07400        0.04600
C          3.20480        1.15650        0.18190
C          4.63760        0.86290        0.47390
C          5.35150        0.02220       -0.57280
C          4.63990       -0.67210        0.58060
C          3.23160       -1.17970        0.23810
H          0.61990        1.14030       -0.36740
H          0.43420       -0.40230        0.55130
H          0.80970       -0.44070       -1.21750
H          2.81830        2.16230        0.07970
H          5.07350        1.19540        1.43930
H          6.43430        0.24640       -0.46950
H          4.83930        0.09430       -1.55790
H          5.41660       -1.36600        0.96590
H          2.81210       -1.73970        1.10020
H          3.22920       -1.81770       -0.67150
