17
6877	1
O          1.09480        0.08610        0.09240
C          2.49680        0.04420        0.06190
C          3.06920       -1.07090        0.94880
C          3.85510       -0.19890        1.92920
C          4.54200        0.79560        0.99670
C          3.09330        1.24180        0.80630
C          2.83810        0.88660        2.27090
H          0.78480       -0.71070       -0.41130
H          2.87790        0.01870       -0.98560
H          3.74290       -1.75030        0.38150
H          2.28370       -1.65100        1.48310
H          4.41210       -0.74860        2.71730
H          5.10840        0.40850        0.11840
H          5.14190        1.55030        1.55990
H          2.83970        2.23970        0.38960
H          1.81320        0.58450        2.58620
H          3.26050        1.65150        2.96600
