17
6809	1
C          1.66740       -0.00020       -0.07760
C          0.85510        1.27800        0.25020
C         -0.64750        0.99310       -0.07100
C         -1.17070        0.00010        0.93860
C         -0.64770       -0.99300       -0.07100
C          0.85480       -1.27820        0.25020
O         -0.71930        0.00010       -1.09050
H          2.70350       -0.00030        0.32100
H          1.76180       -0.00020       -1.18780
H          1.25800        2.10910       -0.36750
H          0.94280        1.56550        1.32060
H         -1.29900        1.89030       -0.14850
H         -2.28290        0.00030        0.87860
H         -0.80640        0.00010        1.98970
H         -1.29950       -1.89000       -0.14850
H          1.25750       -2.10940       -0.36750
H          0.94250       -1.56570        1.32060
