13
6859	1
O          1.54680       -0.05310        1.26380
C          2.41840       -0.07750        0.40950
C          2.96870       -1.34740       -0.13870
C          3.99720       -0.86590       -1.15540
O          4.99920       -0.12060       -0.50430
C          4.01240        0.62100       -1.18240
C          2.99440        1.16000       -0.18430
H          2.16130       -1.91870       -0.64300
H          3.44460       -1.96570        0.65200
H          4.50070       -1.52660       -1.89090
H          4.52910        1.24410       -1.94130
H          2.19870        1.72910       -0.70930
H          3.48310        1.79680        0.58360
