16
6873	1
C          1.02950       -0.06370       -0.33660
C          2.49110        0.03480       -0.01870
C          3.17130        1.14910        0.02090
C          4.59680        0.90390        0.35100
C          5.35520        0.05710       -0.57820
N          4.69840       -0.56890        0.58830
C          3.36080       -1.12450        0.27680
H          0.59060        0.93880       -0.52860
H          0.49640       -0.52870        0.51860
H          0.88910       -0.69410       -1.23920
H          2.75090        2.12740       -0.17320
H          5.05550        1.39560        1.23410
H          6.45530        0.09200       -0.43810
H          4.88920       -0.21550       -1.55230
H          2.97290       -1.66250        1.16720
H          3.40340       -1.82600       -0.58510
