15
6811	1
C          0.86180       -1.21640        0.29790
O          1.59440        0.00090        0.51090
C          0.86160        1.21750        0.29420
C         -0.63270        0.97490       -0.02840
C         -1.19820        0.00150        0.97750
C         -0.63260       -0.97490       -0.02540
O         -0.66030       -0.00160       -1.04360
H          0.92990       -1.83930        1.21490
H          1.32280       -1.77000       -0.54710
H          1.32260        1.76860       -0.55250
H          0.92970        1.84320        1.20930
H         -1.24080        1.88970       -0.19840
H         -2.30720        0.00130        0.88450
H         -0.83960        0.00310        2.03070
H         -1.24060       -1.89030       -0.19270
