18
6824	1
N          0.93090        0.02640        0.26720
C          2.39070       -0.03510        0.10530
C          2.84730       -1.38120       -0.42400
C          2.46450       -1.37750       -1.91170
C          3.44890       -0.82590       -2.91580
C          2.47140        0.15250       -2.30830
C          2.85960        0.87590       -1.00970
H          0.64170       -0.64050        1.01920
H          0.41440       -0.22420       -0.60560
H          2.85330        0.22180        1.08350
H          2.42140       -2.23930        0.13770
H          3.95660       -1.44300       -0.34350
H          1.43990       -1.71770       -2.18520
H          3.20620       -1.09650       -3.96430
H          4.49640       -0.73800       -2.55710
H          1.44810        0.32540       -2.71210
H          2.44250        1.90250       -0.93610
H          3.96980        0.95770       -0.96700
