15
6821	1
C          0.87080        1.29180       -0.00460
C          1.62840       -0.03840       -0.03100
C          0.89970       -1.17550       -0.02880
C         -0.61320       -0.99190        0.00320
C         -1.00730       -0.00530       -1.08230
C         -0.66510        0.98590        0.01850
O         -0.86990       -0.01730        1.00130
H          1.12610        1.89200       -0.90340
H          1.15410        1.85900        0.90680
H          2.71290       -0.06740       -0.04840
H          1.36440       -2.15580       -0.04130
H         -1.21330       -1.92640        0.03450
H         -2.11390       -0.03520       -1.19850
H         -0.46370        0.01770       -2.05270
H         -1.32810        1.87650        0.06490
