15
6829	1
C          0.96370        0.03710        0.33390
C          2.39510       -0.15730       -0.16770
O          2.59720       -1.47420       -0.61410
C          2.43910       -1.40020       -1.99670
C          3.66140       -0.93630       -2.74920
C          2.52560        0.04060       -2.40500
O          2.69210        0.74820       -1.20600
H          0.75730       -0.66840        1.16620
H          0.23630       -0.14900       -0.48460
H          0.83200        1.07600        0.70310
H          3.10670        0.03310        0.66370
H          1.74320       -2.07410       -2.54130
H          3.66550       -1.02040       -3.85570
H          4.56370       -0.60720       -2.19000
H          1.56500        0.20030       -2.94090
