15
6817	1
C         -0.98440        0.00760       -1.08110
C         -0.63410        1.04830        0.00240
C         -1.02180       -0.02700        1.03840
C         -0.57000       -1.05050       -0.03070
N          0.89830       -1.13320       -0.00610
C          1.56910       -0.02720        0.02380
N          0.82120        1.18480        0.03030
H         -0.44630        0.03970       -2.05360
H         -2.08990       -0.02150       -1.23480
H         -1.14260        2.03580        0.00950
H         -2.13200       -0.06050        1.15190
H         -0.51840       -0.02700        2.02970
H         -1.03110       -2.06000       -0.05530
H          2.65340       -0.02700        0.04290
H          1.28230        2.10570        0.05340
