16
6822	1
C          0.76230        1.27260        0.00310
C          1.56470       -0.03390       -0.01110
C          0.87380       -1.19290       -0.01850
C         -0.64360       -1.10610       -0.01210
C         -1.00750       -0.01380       -1.01230
N         -0.71480        1.02070        0.00750
C         -0.99890       -0.03230        1.01100
H          1.03020        1.87270       -0.89280
H          1.03800        1.85840        0.90590
H          2.64970       -0.02750       -0.01510
H          1.38410       -2.15050       -0.02840
H         -1.15240       -2.09290       -0.01900
H         -2.10410       -0.00890       -1.22800
H         -0.42620        0.02760       -1.96320
H         -2.09350       -0.03180        1.23620
H         -0.40930       -0.00860        1.95730
