18
6803	1
C          1.63420       -0.03870       -0.08860
C          0.85860        1.25850        0.22730
C         -0.65520        1.05540       -0.06650
C         -1.17770       -0.02100        0.89800
C         -0.61950       -1.04690       -0.08810
C         -0.85420        0.02190       -1.19210
N          0.82250       -1.22860        0.23760
H          2.62650       -0.06020        0.40910
H          1.83300       -0.05700       -1.18380
H          1.29490        2.08260       -0.37690
H          0.95750        1.53030        1.30100
H         -1.20670        2.01980       -0.07030
H         -2.29390       -0.03850        0.85870
H         -0.82920       -0.03650        1.95400
H         -1.14350       -2.02520       -0.15170
H         -1.92990        0.00870       -1.49150
H         -0.21750        0.04660       -2.10150
H          1.20280       -2.04260       -0.29920
