20
6935	1
C          1.43080        0.06230        0.87600
C          2.70440        0.90920        0.83330
C          3.00190        1.52350       -0.56170
C          1.88460        2.48200       -1.01580
O          2.17560        3.00720       -2.28420
N          4.27440        2.27010       -0.55280
C          5.46260        1.41300       -0.52880
H          1.31890       -0.38020        1.88840
H          1.49190       -0.76200        0.13400
H          0.52710        0.67270        0.67920
H          3.53660        0.23700        1.12430
H          2.62900        1.71610        1.59450
H          3.06140        0.70510       -1.31490
H          1.74360        3.30360       -0.27510
H          0.91550        1.95080       -1.09550
H          2.70650        3.83400       -2.14160
H          4.30490        2.95100        0.24240
H          5.44090        0.69140       -1.37360
H          5.55290        0.86920        0.43370
H          6.36680        2.04640       -0.64490
