16
6964	1
C          2.79610        0.36730       -1.38580
C          2.38910       -0.07980        0.02030
C          2.93770        0.84740        1.12470
C          2.41380        0.40300        2.50060
O          2.83300        1.28780        3.50680
C          4.38170        0.84740        1.12470
N          5.53270        0.84740        1.12470
H          2.35180       -0.32000       -2.13630
H          3.89970        0.34640       -1.50490
H          2.42690        1.39600       -1.58370
H          2.73950       -1.12260        0.18750
H          1.27780       -0.07630        0.06530
H          2.58150        1.88340        0.93350
H          2.73060       -0.64100        2.73500
H          1.30280        0.40170        2.49320
H          3.70590        0.95390        3.84180
