14
6975	1
O          2.95610        1.03590        0.50950
C          2.57580        0.07830       -0.44070
C          3.04840       -1.31770       -0.00140
C          2.56720       -2.38660       -0.99910
F          1.18510       -2.39440       -1.07160
C          4.55450       -1.32770        0.15310
O          5.25640       -2.09080       -0.49360
H          2.64120        1.91030        0.16130
H          3.02590        0.32740       -1.42890
H          1.46620        0.07840       -0.52800
H          2.60230       -1.55030        0.99040
H          2.90080       -3.39270       -0.66570
H          2.98070       -2.19200       -2.01230
H          5.02320       -0.64580        0.85550
