19
6936	1
C          2.91410        0.61130       -1.11860
C          2.47900       -0.18510        0.11370
C          3.04430        0.35640        1.45330
C          2.42580       -0.45530        2.61260
F          1.04410       -0.37390        2.58200
N          4.52240        0.27070        1.46450
C          5.12880        0.82060        2.68200
H          2.41540        0.19290       -2.01850
H          4.00720        0.54400       -1.28810
H          2.61740        1.67650       -1.01340
H          2.77490       -1.24860       -0.01950
H          1.36880       -0.13540        0.14620
H          2.72720        1.41890        1.56330
H          2.74800       -0.06100        3.59660
H          2.72690       -1.52230        2.53920
H          4.89580        0.85480        0.68300
H          4.94210        0.15820        3.55140
H          4.75300        1.84750        2.88610
H          6.23160        0.86930        2.55340
