16
6942	1
C          1.43150        0.77000       -1.02270
N          2.87520        0.51290       -0.99010
C          3.27080       -0.65910       -1.79930
C          3.09750       -0.38200       -3.30540
F          3.48710       -1.48330       -4.04790
C          4.74260       -1.00680       -1.51240
F          4.91470       -1.32690       -0.17700
H          1.19160        1.59510       -0.31890
H          0.85900       -0.13150       -0.71270
H          1.10540        1.10360       -2.02760
H          3.11410        0.32680        0.01220
H          2.65200       -1.54260       -1.52060
H          3.71050        0.49360       -3.60840
H          2.03860       -0.17680       -3.55690
H          5.39880       -0.14620       -1.76470
H          5.05980       -1.88400       -2.11540
