17
6907	1
C          1.13970       -0.04750        0.15600
C          2.61850       -0.27080        0.12610
C          3.26000       -1.30100       -0.35860
C          4.68540       -0.95900       -0.10570
C          4.66610        0.51550       -0.55200
C          3.69400        0.62050        0.63700
C          4.56000       -0.44080        1.33970
H          0.60310       -0.90300       -0.30660
H          0.89560        0.87830       -0.40490
H          0.80500        0.06300        1.20810
H          2.83900       -2.18100       -0.82710
H          5.45130       -1.69260       -0.43360
H          4.28660        0.75720       -1.57360
H          5.63590        1.03470       -0.35880
H          3.39080        1.58060        1.10530
H          4.08040       -1.10060        2.10170
H          5.51870       -0.02080        1.72940
