18
6894	1
C          0.94880        0.00540        0.04260
C          2.47890       -0.00430        0.17940
C          3.04350       -1.17630        1.01890
C          3.87600       -0.32640        1.98100
C          4.42170        0.70980        1.02990
N          3.02310        1.17370        0.89020
C          2.86580        0.74680        2.29640
H          0.62050       -0.90530       -0.50140
H          0.63300        0.89760       -0.53780
H          0.43180        0.02360        1.02220
H          2.89530       -0.03290       -0.85690
H          3.66710       -1.86880        0.41170
H          2.26640       -1.73630        1.58720
H          4.47270       -0.86120        2.74930
H          4.94810        0.34020        0.11430
H          5.05740        1.48480        1.53050
H          1.85890        0.42030        2.64400
H          3.25020        1.53040        2.99920
