15
6952	1
C          1.45920       -0.41160       -0.73340
O          2.39390       -1.41210       -0.39440
C          2.66500       -1.39810        0.99750
C          2.77120       -2.84570        1.48290
F          1.57690       -3.50570        1.25470
C          3.97230       -0.63900        1.25410
F          4.26390       -0.61870        2.60680
H          1.34480       -0.39910       -1.83660
H          1.81440        0.59860       -0.43220
H          0.46070       -0.63890       -0.29930
H          1.84960       -0.92100        1.59550
H          2.98830       -2.87560        2.57190
H          3.58360       -3.37640        0.94140
H          3.87580        0.40900        0.90110
H          4.81190       -1.11860        0.70680
