15
6986	1
C          2.67350       -0.70980       -1.00390
N          2.42560       -0.16940        0.33590
C          2.96500        1.19200        0.50560
C          2.43540        1.81090        1.80770
O          2.85980        1.08430        2.93240
C          4.40900        1.19200        0.50560
N          5.56000        1.19200        0.50560
H          2.20120       -1.71100       -1.08810
H          3.76290       -0.82080       -1.19430
H          2.22340       -0.05100       -1.77710
H          2.83220       -0.82030        1.04920
H          2.61330        1.83800       -0.32920
H          1.32250        1.87170        1.77630
H          2.80090        2.85600        1.90700
H          2.16780        0.39530        3.11120
