16
6928	1
N          1.24560        0.48020       -0.11950
C          2.69830        0.40760       -0.25320
C          3.11060       -0.65020       -1.29830
C          2.53090       -0.31040       -2.68150
F          2.88050       -1.28230       -3.60250
C          4.64250       -0.75010       -1.37400
F          5.16170       -1.11310       -0.14340
H          1.01380        1.21830        0.58400
H          0.88700       -0.43400        0.24170
H          3.13480        0.15080        0.73720
H          3.08870        1.40420       -0.55830
H          2.71460       -1.64080       -0.98350
H          2.90900        0.67420       -3.03040
H          1.42300       -0.26370       -2.63650
H          5.08370        0.22180       -1.68430
H          4.94180       -1.52200       -2.11390
