22
6933	1
C          1.40990       -0.95010        0.25740
C          2.91650       -0.68440        0.28830
C          3.32850        0.49650        1.20990
C          2.94510        0.23220        2.68420
C          3.32230        1.39990        3.59740
N          4.78300        0.73910        1.13820
C          5.22360        1.34520       -0.12060
H          1.19670       -1.76630       -0.46490
H          0.86490       -0.03860       -0.06770
H          1.03120       -1.27660        1.24630
H          3.21190       -0.45510       -0.75540
H          3.44240       -1.61220        0.60190
H          2.78600        1.41230        0.88150
H          3.45390       -0.68780        3.04650
H          1.84940        0.09130        2.77810
H          4.41910        1.57180        3.58910
H          3.01420        1.17030        4.63920
H          2.80500        2.32690        3.27030
H          5.32090       -0.14070        1.32060
H          4.64470        2.26860       -0.33490
H          5.13330        0.63360       -0.96650
H          6.29390        1.62580       -0.03140
