15
6899	1
C          1.05480       -0.07210        0.01390
C          2.38620        0.00260       -0.00830
O          3.22080       -1.02610        0.03780
C          4.45290       -0.40830       -0.01340
C          4.23180        0.63840       -1.12850
C          3.24890        1.19510       -0.08650
C          4.26040        0.75620        0.98390
H          0.56350       -1.03760        0.07440
H          0.45560        0.83160       -0.02840
H          5.32130       -1.09920        0.01330
H          3.82650        0.27370       -2.10160
H          5.11360        1.30550       -1.28730
H          2.77820        2.19970       -0.13620
H          3.88220        0.50260        2.00220
H          5.14520        1.43550        1.04370
