16
6901	1
C          1.02620        0.03200       -0.05220
C          2.36060        0.00940       -0.05950
C          3.23990       -1.17360       -0.01180
C          4.51690       -0.29780       -0.06030
C          4.20510        0.66500       -1.20560
C          3.28520        1.16370       -0.10470
N          4.27210        0.78320        0.91090
H          0.46410       -0.89540       -0.01210
H          0.49450        0.97730       -0.08650
H          3.12720       -1.83480       -0.89860
H          3.13770       -1.74220        0.93740
H          5.49570       -0.82200       -0.03120
H          3.78950        0.27820       -2.16630
H          5.04400        1.37990       -1.36750
H          2.87120        2.19470       -0.11400
H          3.86440        0.46270        1.82480
