12
6979	1
F          2.80530       -1.19870       -0.56030
C          2.39500        0.02720       -0.06270
C          2.92040        0.24590        1.36240
C          2.39840       -0.82480        2.32850
F          1.01570       -0.79620        2.37540
C          4.36440        0.24590        1.36240
N          5.51540        0.24590        1.36240
H          1.28500        0.06500       -0.07140
H          2.76800        0.83060       -0.73430
H          2.57510        1.24100        1.71750
H          2.78510       -0.63340        3.35300
H          2.72780       -1.83840        2.01210
