15
6972	1
O          2.63120        0.21000       -1.27730
C          2.34100        0.01300        0.07980
C          3.03590        1.08860        0.93040
C          2.63870        0.92420        2.41070
O          3.20900        1.95010        3.17670
C          4.53490        1.02160        0.71860
O          5.30190        0.81460        1.64680
H          2.16440       -0.51590       -1.76720
H          2.69070       -0.99560        0.39830
H          1.24020        0.08850        0.22920
H          2.68300        2.08750        0.59100
H          2.98460       -0.06680        2.78400
H          1.53010        0.98420        2.49560
H          2.92590        1.78470        4.11330
H          4.93850        1.15890       -0.27950
