15
6896	1
O          1.19630        0.08320        0.09730
C          2.41680        0.07300        0.07640
C          3.28020       -1.12010        0.11420
C          4.58140       -0.29060        0.05470
C          4.27970        0.74000       -1.04940
C          3.30010        1.25070        0.00880
C          4.31670        0.83410        1.07330
H          3.14090       -1.77370       -0.77390
H          3.17290       -1.69250        1.06080
H          5.52250       -0.87980        0.06440
H          3.88280        0.37130       -2.02440
H          5.12490        1.45210       -1.20890
H          2.81800        2.25050       -0.02710
H          3.95460        0.55360        2.09030
H          5.16580        1.55620        1.13970
