15
7001	1
C          4.10690        0.30070        1.38240
O          3.25950       -0.09450        0.32090
C          3.16770        0.89990       -0.69320
O          3.04630        2.20970       -0.15820
C          1.71120        2.45760        0.22480
C          4.34210        0.85190       -1.63500
O          5.24780        0.04870       -1.47400
H          4.37210       -0.60140        1.97070
H          3.57980        1.00220        2.06350
H          5.06550        0.73850        1.02700
H          2.28990        0.65470       -1.33620
H          1.67550        3.43010        0.75720
H          1.33590        1.68740        0.93500
H          1.05230        2.54240       -0.66690
H          4.37640        1.53210       -2.47980
