17
6991	1
C          2.53850        0.74970       -1.57370
C          2.92620       -0.13060       -0.38390
C          3.55340        0.66880        0.76980
O          3.82440       -0.22840        1.83210
C          3.76020        0.43820        3.07430
C          4.83870        1.32070        0.33120
O          4.95680        2.53510        0.36470
H          2.07090        0.12240       -2.36150
H          3.43250        1.24520       -2.00720
H          1.80860        1.52500       -1.25750
H          3.63330       -0.91850       -0.72550
H          2.00560       -0.63000       -0.01020
H          2.80470        1.44580        1.06390
H          4.07380       -0.27070        3.86770
H          2.71810        0.75150        3.30410
H          4.46320        1.29970        3.11400
H          5.66620        0.70980       -0.01520
