16
7013	1
C          2.85820       -0.55500       -0.88880
C          2.45190       -0.31760        0.56750
C          3.00520        1.00810        1.13290
C          2.50280        1.24370        2.56320
F          1.12080        1.31260        2.58390
C          4.44920        1.00810        1.13290
C          5.63930        1.00810        1.13290
H          2.41220       -1.50650       -1.24750
H          3.96170       -0.62940       -0.98600
H          2.49030        0.27390       -1.53020
H          2.80160       -1.17250        1.18790
H          1.34090       -0.29410        0.60470
H          2.65360        1.85050        0.49790
H          2.90270        2.20430        2.95490
H          2.83310        0.42270        3.23650
H          6.69750        1.00770        1.13270
