17
7036	1
O          2.85620        1.61300       -0.29050
C          2.52690        0.28420        0.01460
C          3.02380       -0.66620       -1.08430
C          2.38720       -0.32040       -2.40950
C          1.61400       -1.19090       -3.06660
C          4.52530       -0.57750       -1.22050
C          5.31430       -1.63580       -1.00870
H          2.50500        2.16220        0.45770
H          1.42140        0.18340        0.10390
H          2.99830       -0.00600        0.98080
H          2.73260       -1.69920       -0.78410
H          2.56140        0.66080       -2.84300
H          1.41770       -2.18040       -2.66530
H          1.17170       -0.91140       -4.01720
H          4.97880        0.37020       -1.49860
H          4.89750       -2.59880       -0.73010
H          6.38980       -1.53880       -1.11530
