14
7051	1
C          3.89920       -2.73750        0.32090
N          3.11730       -1.49540        0.27240
C          3.10570       -0.74420        1.54260
C          2.47450       -1.55010        2.66040
O          1.32740       -1.95300        2.54940
C          4.49600       -0.24100        1.86410
O          5.05540       -0.52770        2.91150
H          3.87810       -3.22040       -0.67860
H          3.47340       -3.45100        1.05850
H          4.96010       -2.52790        0.57160
H          2.13470       -1.72860       -0.00460
H          2.47540        0.16040        1.40000
H          3.02370       -1.77390        3.56900
H          5.00890        0.38900        1.14460
