16
6992	1
C          2.83360        0.78400       -2.15130
C          2.44020        0.45530       -0.70890
C          2.98960        1.46790        0.30990
O          2.52430        1.09840        1.59600
C          2.31650        2.24060        2.39860
C          4.43360        1.46790        0.30990
N          5.58460        1.46790        0.30990
H          2.38650        0.03390       -2.83710
H          3.93650        0.75770       -2.27680
H          2.45800        1.79070       -2.43300
H          2.79600       -0.56790       -0.45540
H          1.32990        0.45980       -0.64730
H          2.62230        2.47480       -0.00490
H          2.04920        1.90520        3.42160
H          1.46560        2.84550        2.01520
H          3.24290        2.85050        2.48870
