18
7011	1
C          2.85840        0.77540        1.15560
C          2.44320        0.05100       -0.12740
C          2.99000       -1.39270       -0.20250
C          2.48970       -2.11540       -1.46750
N          1.03200       -2.20530       -1.48030
C          4.43400       -1.39270       -0.20250
C          5.62420       -1.39270       -0.20250
H          2.41800        1.79470        1.16460
H          3.96260        0.87330        1.21730
H          2.49080        0.22150        2.04540
H          2.79240        0.63670       -1.00660
H          1.33230        0.02500       -0.14810
H          2.64350       -1.96090        0.68860
H          2.91490       -3.14460       -1.50540
H          2.82870       -1.56670       -2.37490
H          0.71730       -2.78770       -0.67030
H          0.73650       -2.69300       -2.35670
H          6.68240       -1.39230       -0.20250
