16
7065	1
C          0.92920       -0.50890       -0.75940
C          2.04750        0.41810       -0.28500
N          1.90330        1.74980       -0.84490
C          0.73930        2.52510       -0.50200
N          0.38310        3.57400       -1.15860
N          2.89800        2.21430       -1.68940
C          3.33210        3.42690       -1.66470
H          1.07970       -1.52180       -0.33020
H          0.94310       -0.58410       -1.86740
H         -0.06350       -0.13540       -0.43280
H          3.01690       -0.02420       -0.60480
H          2.04680        0.47740        0.82490
H          0.09250        2.17930        0.29840
H          0.90030        3.93530       -1.96940
H          4.11150        3.73120       -2.35420
H          2.96200        4.14470       -0.93900
