14
7064	1
C          1.15450        0.02180       -0.91480
C          2.03730       -0.07630        0.33190
N          1.24300       -0.32980        1.54010
C          0.58610       -1.51810        1.70400
O          0.65880       -2.40110        0.86240
C          1.15970        0.60570        2.53480
O          1.73080        1.68220        2.44270
H          1.78910        0.23270       -1.80130
H          0.42440        0.85010       -0.79490
H          0.60170       -0.91930       -1.10620
H          2.59480        0.88250        0.39940
H          2.79540       -0.87990        0.20650
H         -0.00040       -1.70320        2.60050
H          0.57590        0.40460        3.42970
