17
6994	1
C          3.10000        0.43440       -0.96730
O          3.00890       -0.56100        0.02890
C          3.22840       -0.00180        1.31180
C          2.48460       -0.84680        2.35340
O          2.94900       -2.17140        2.36340
C          4.70880        0.01340        1.61790
C          5.35580        1.15010        1.89230
H          3.01370       -0.05520       -1.95880
H          4.08680        0.94780       -0.94510
H          2.26110        1.15980       -0.88370
H          2.79280        1.02480        1.39300
H          1.38780       -0.82370        2.15640
H          2.63360       -0.41270        3.36550
H          2.48080       -2.64580        1.62770
H          5.26160       -0.92170        1.61250
H          4.83390        2.10210        1.90440
H          6.41920        1.12940        2.10680
