18
7048	1
C          1.94270        0.35960        1.42190
N          3.33620        0.62270        1.04850
C          3.44160        1.44480       -0.16810
C          2.91200        2.83740        0.08390
C          1.89680        3.34200       -0.62440
C          4.89530        1.56650       -0.55420
C          5.35220        1.12500       -1.73040
H          1.92140       -0.29500        2.31870
H          1.40100       -0.15400        0.59770
H          1.41970        1.30350        1.68320
H          3.78580       -0.30560        0.86350
H          2.87380        0.95370       -0.99420
H          3.36680        3.44390        0.86240
H          1.41890        2.76310       -1.40870
H          1.53880        4.34530       -0.41780
H          5.59110        2.02300        0.14470
H          4.68700        0.66130       -2.45220
H          6.40470        1.22690       -1.97420
