15
7068	1
C          2.40420       -1.46250        0.69700
N          2.29110       -0.35970       -0.25900
N          2.84820       -0.71170       -1.49530
C          1.99690       -0.92690       -2.62380
C          0.66380       -0.83680       -2.53480
C          4.20020       -0.82080       -1.65560
O          4.96250       -0.60500       -0.72570
H          1.91210       -1.17150        1.64860
H          3.46240       -1.71070        0.91500
H          1.88630       -2.36060        0.29910
H          2.74420        0.51350        0.09920
H          2.43330       -1.17580       -3.58830
H          0.17220       -0.59530       -1.59850
H          0.05230       -1.01030       -3.41410
H          4.61740       -1.08700       -2.62290
