19
7003	1
C          2.01210        1.47020        0.01850
C          2.50240        0.02230       -0.02840
N          3.04880       -0.39500        1.26510
C          2.13970       -0.50840        2.40210
C          2.05030       -1.94940        2.90670
C          4.44190       -0.70480        1.47940
N          5.34860       -0.60220        0.56880
H          1.60130        1.75490       -0.97320
H          2.85930        2.14640        0.26040
H          1.21320        1.61020        0.77420
H          3.22550       -0.04190       -0.85500
H          1.66510       -0.65440       -0.30500
H          1.10860       -0.20670        2.11890
H          2.48040        0.16160        3.22090
H          1.68760       -2.61310        2.09320
H          1.33500       -2.00090        3.75440
H          3.03340       -2.31800        3.26340
H          4.76040       -1.01830        2.46810
H          5.18490       -0.29880       -0.39550
