13
6999	1
C          1.49190        0.36120        0.52100
O          2.48760        0.90850       -0.31440
C          2.93500       -0.04660       -1.26100
C          2.41690        0.32570       -2.65150
F          1.03430        0.29600       -2.66750
C          4.37900       -0.04660       -1.26100
N          5.53000       -0.04660       -1.26100
H          1.13000        1.15780        1.20290
H          1.90830       -0.45290        1.15430
H          0.61470        0.01230       -0.06740
H          2.61530       -1.09250       -1.03270
H          2.79320       -0.39660       -3.40810
H          2.75630        1.34650       -2.93180
