14
7177	1
N          1.34130       -0.02170       -0.44540
C          2.78540       -0.20960       -0.36020
C          3.13800       -0.95680        0.89630
N          2.60550       -2.26970        1.09520
O          2.88230       -2.99020        2.19190
N          3.91740       -0.39200        1.75940
O          4.27500       -0.98180        2.88010
H          1.12380        0.47880       -1.33740
H          1.02830        0.58670        0.34620
H          3.29140        0.78210       -0.38360
H          3.13300       -0.79930       -1.23540
H          1.99990       -2.68210        0.36990
H          2.12320       -2.81950        2.80650
H          4.86040       -0.52710        3.50030
