14
7146	1
N          3.46700        0.19110        0.87940
C          2.46370       -0.06020       -0.15360
C          3.04840       -0.19430       -1.55130
C          2.08460       -0.44660       -2.68570
F          1.18220        0.59760       -2.77100
C          4.37480       -0.10410       -1.79020
F          4.87260       -0.23270       -3.04940
H          2.99100        0.18500        1.81030
H          3.86160        1.15020        0.74140
H          1.72110        0.76820       -0.14590
H          1.93120       -1.00540        0.08810
H          1.53000       -1.38850       -2.49180
H          2.59150       -0.54830       -3.66790
H          5.08140        0.06930       -0.98710
