17
7171	2
C          2.84520        0.60160       -1.46310
C          2.21950       -0.22730       -0.34420
C          2.63390        0.29470        1.01720
N          1.67040        0.78190        1.96390
C          0.25150        0.81870        1.68970
N          3.89000        0.28440        1.31550
O          4.32900        0.71750        2.47880
H          2.53690        0.19110       -2.44780
H          3.95390        0.57150       -1.40120
H          2.50390        1.65670       -1.39400
H          2.55210       -1.28320       -0.43950
H          1.12190       -0.21110       -0.48640
H          1.98920        1.12660        2.88160
H          0.05040        1.46680        0.81060
H         -0.29050        1.23700        2.56420
H         -0.12760       -0.20820        1.50330
H          5.27490        0.69870        2.67580
