14
7182	2
N          1.24840        0.06020       -0.45360
N          2.52240       -0.22660       -0.01180
C          2.78560       -0.71540        1.15930
C          1.67820       -1.01570        2.15710
O          2.17370       -1.55500        3.35310
N          4.14490       -0.97230        1.50220
O          5.12490       -0.71580        0.62310
H          1.11820        0.44810       -1.39820
H          0.41580       -0.10230        0.12950
H          0.97890       -1.75670        1.71580
H          1.09470       -0.09180        2.37520
H          2.47370       -0.78930        3.90990
H          4.39180       -1.37240        2.41850
H          5.44090        0.19550        0.85270
