13
7095	1
O          2.71570        0.27640       -1.35160
C          2.28830       -0.00630       -0.04840
C          2.83440        1.04540        0.92430
C          2.39830        0.76970        2.30040
C          1.95120        0.56110        3.40120
C          4.27840        1.04540        0.92430
C          5.46850        1.04540        0.92430
H          2.32910       -0.43360       -1.92720
H          2.64400       -1.01980        0.25500
H          1.17430        0.01740       -0.01370
H          2.47400        2.05200        0.62270
H          1.64280        0.37390        4.39700
H          6.52670        1.04520        0.92430
