12
7113	1
C          1.49760        0.14460       -0.44160
C          2.74170        0.30570        0.04290
N          3.23030        1.50720        0.68590
C          2.43250        2.61320        0.85840
O          2.86030        3.62120        1.40390
C          4.52730        1.53710        1.13380
O          5.26590        0.57220        0.99760
H          1.23220       -0.79960       -0.90680
H          0.73050        0.90200       -0.39990
H          3.41220       -0.54260       -0.06800
H          1.40830        2.63130        0.52150
H          4.92800        2.42170        1.62100
