13
7120	1
C          1.11370        0.16220        0.83460
N          2.24390       -0.18030        0.31990
N          2.97380       -1.27300        0.76010
C          2.36810       -2.53620        1.08630
N          1.15760       -2.83380        0.76220
C          4.39550       -1.16870        0.85550
N          5.01350       -0.07750        0.56580
H          0.58740        1.02640        0.44530
H          0.69260       -0.37510        1.67890
H          2.97080       -3.30310        1.56380
H          0.53470       -2.19560        0.25250
H          4.97810       -2.02580        1.18050
H          4.51760        0.76900        0.25290
