18
7170	2
C          2.40990        0.78250        1.32700
C          2.37270       -0.06970        0.05750
C          3.00430       -1.43370        0.25310
N          2.33220       -2.46450        1.00340
C          0.95450       -2.34790        1.43310
N          4.15810       -1.63450       -0.30930
N          4.86590       -2.81760       -0.27880
H          1.97750        1.78200        1.10980
H          3.46150        0.92010        1.65800
H          1.83890        0.34220        2.16150
H          2.95740        0.49430       -0.70330
H          1.33970       -0.17410       -0.33520
H          2.79690       -3.35590        1.20640
H          0.82480       -1.53200        2.16350
H          0.63780       -3.28810        1.93270
H          0.29490       -2.18300        0.55560
H          5.78700       -2.85900       -0.73650
H          4.49030       -3.68580        0.11740
