15
7123	1
C          1.42610       -0.03550       -1.13440
C          2.27150        0.04170       -0.09400
C          3.01080        1.30520        0.27750
C          2.67260        1.71140        1.69260
C          2.13760        2.90200        2.00740
C          4.44960        1.04330        0.20460
C          5.63370        0.83320        0.14630
H          0.92080       -0.97370       -1.35330
H          1.22330        0.81570       -1.77610
H          2.43870       -0.84450        0.50760
H          2.77280        2.11970       -0.43020
H          2.88100        1.00750        2.49020
H          1.91400        3.65030        1.25400
H          1.91730        3.13910        3.04600
H          6.67120        0.64540        0.09400
