16
7235	1
C          2.63970       -1.29390        0.79930
C          2.47030        0.03630        0.06270
C          2.97540        1.20880        0.89160
C          2.10730        2.12250        1.36680
F          0.77120        2.02390        1.13130
C          4.42810        1.39280        1.19410
C          5.39820        0.63080        0.67300
H          2.25070       -2.11890        0.16600
H          2.06250       -1.27560        1.74840
H          3.69890       -1.51150        1.03750
H          1.38610        0.13640       -0.15830
H          2.99700        0.01640       -0.91490
H          2.46290        2.96350        1.95530
H          4.72350        2.20180        1.85730
H          5.18920       -0.17830       -0.01530
H          6.43310        0.83050        0.93140
