12
7189	1
O          1.79370       -0.23590       -0.50160
N          2.10520        1.06860       -0.49160
C          3.22040        1.53680        0.25880
C          3.57620        3.00670        0.26200
F          2.70720        3.74630       -0.51990
N          3.92410        0.69410        0.93600
O          4.96450        1.08080        1.64510
H          1.11280       -0.34070        0.21150
H          1.53470        1.72330       -1.04570
H          4.60560        3.14000       -0.13220
H          3.53400        3.39620        1.30090
H          5.47720        0.43160        2.14480
