17
7244	1
C          1.00090        0.26700       -0.00790
C          2.48380        0.04150        0.15170
C          3.08710       -0.99160        0.79700
C          2.31640       -2.10890        1.49020
O          2.62190       -3.34530        0.90500
C          4.58470       -1.00590        0.81530
C          5.31220       -1.94070        1.44170
H          0.76580        0.30800       -1.09160
H          0.74030        1.24630        0.44440
H          0.33890       -0.49070        0.43800
H          3.11530        0.79660       -0.31010
H          1.21930       -1.99710        1.51980
H          2.61580       -2.13440        2.55890
H          2.14830       -3.36860        0.03250
H          5.12190       -0.21450        0.29870
H          4.85690       -2.75950        1.98520
H          6.39570       -1.88380        1.41340
