15
7243	1
N          2.83750        1.30740       -0.08730
C          2.36050       -0.05800        0.10910
C          2.78940       -0.93930       -1.05120
C          1.86550       -1.53110       -1.83110
F          0.53450       -1.35850       -1.61060
C          4.23300       -1.17580       -1.35300
C          5.23200       -0.67080       -0.61780
H          2.55120        1.88250        0.73770
H          2.37600        1.71110       -0.93500
H          1.25500       -0.03380        0.22980
H          2.78230       -0.47080        1.05060
H          2.17070       -2.16330       -2.66010
H          4.49430       -1.79410       -2.20800
H          5.04950       -0.05260        0.25300
H          6.26030       -0.88460       -0.89110
