13
7197	1
C          1.18460        0.55570       -1.30360
O          2.51370        0.54120       -0.93380
C          3.43960        1.46050       -1.32450
C          3.07180        2.60630       -2.24670
F          2.63290        2.11390       -3.46160
C          4.69320        1.32970       -0.86490
F          5.67300        2.20860       -1.20770
H          0.66810       -0.30130       -0.82480
H          1.08480        0.44960       -2.40380
H          0.69840        1.49430       -0.96260
H          3.92940        3.28270       -2.44470
H          2.26800        3.21440       -1.78260
H          4.94120        0.50530       -0.20310
