15
7210	1
C         -0.20360       -0.46140        1.04500
N          0.33430       -1.79510        0.89480
C          1.65500       -2.01540        0.39420
N          2.16680       -3.34810        0.25910
N          1.41020       -4.46180        0.60650
N          2.38430       -1.00170        0.06400
O          3.60650       -1.15140       -0.40220
H         -1.23810       -0.51320        1.44590
H         -0.22800        0.05030        0.05970
H          0.42380        0.12190        1.75170
H         -0.26000       -2.59310        1.15900
H          3.11930       -3.49970       -0.10250
H          0.54380       -4.47460        0.02170
H          1.16340       -4.39670        1.62040
H          4.13030       -0.37570       -0.64290
