15
7215	1
N          0.95790        0.49240        0.57320
N          1.77670       -0.63190        0.60240
C          2.68210       -0.91770       -0.46580
N          3.50060       -2.09220       -0.39470
N          3.43420       -2.92480        0.71460
N          2.72520       -0.10630       -1.47900
N          3.56550       -0.23590       -2.56470
H          0.34640        0.43610       -0.27320
H          1.56320        1.34290        0.51210
H          1.72050       -1.26110        1.41500
H          4.13540       -2.35620       -1.15750
H          4.39280       -2.98530        1.12660
H          3.14850       -3.87470        0.38550
H          4.33340       -0.91470       -2.59800
H          3.48700        0.43650       -3.33990
