14
7220	1
C          1.18570       -0.29190        0.21240
N          2.55630        0.16680        0.18830
C          3.18530        0.54240       -0.87970
N          2.54960        0.53150       -2.16080
O          3.22160        0.91760       -3.25490
N          4.53660        0.97370       -0.76870
O          5.14640        0.99870        0.42560
H          0.90830       -0.54620        1.25590
H          1.07320       -1.20340       -0.41270
H          0.50480        0.50920       -0.14670
H          1.57540        0.21630       -2.26850
H          2.99830        1.87720       -3.36540
H          5.05430        1.28420       -1.60350
H          5.62000        0.13000        0.48800
