17
7223	1
C          2.54710       -0.18110        1.14720
N          2.19050        0.33280       -0.15620
C          3.17580        0.53380       -1.17400
O          2.82880        1.01930       -2.40060
C          1.54640        1.35520       -2.77800
N          4.41180        0.25100       -0.92700
C          5.46310        0.42660       -1.90250
H          1.64070       -0.26090        1.78400
H          3.26970        0.50380        1.63920
H          3.00120       -1.18950        1.04490
H          1.20160        0.55390       -0.33930
H          1.56210        1.72030       -3.82530
H          1.15380        2.16660       -2.12850
H          0.88380        0.46500       -2.72560
H          6.42980        0.11640       -1.45540
H          5.53380        1.49440       -2.20160
H          5.26470       -0.20200       -2.79700
