10
7284	1
O          2.89070        1.22220        0.15950
N          2.34600        0.05540       -0.23910
C          3.08130       -1.11260        0.08480
N          2.50070       -2.18640        0.44860
O          1.19690       -2.23120        0.49020
C          4.49940       -1.09420        0.04450
N          5.65380       -1.07460        0.01020
H          3.25880        1.65450       -0.63980
H          1.35050       -0.05470       -0.03620
H          0.88270       -3.08060        0.76800
