16
7252	1
C          0.95170       -0.31300       -0.18250
C          2.43160       -0.02670       -0.24310
C          3.02590        1.19410       -0.31270
C          2.25220        2.50290       -0.33460
F          2.51610        3.17780       -1.51280
C          4.52180        1.22550       -0.36650
C          5.23970        2.35610       -0.41060
H          0.73810       -0.87580        0.74970
H          0.68070       -0.95290       -1.04770
H          0.28100        0.55950       -0.20080
H          3.06980       -0.90700       -0.22980
H          2.57200        3.12780        0.52530
H          1.15930        2.41220       -0.25300
H          5.06600        0.28440       -0.36620
H          4.77590        3.33510       -0.40940
H          6.32300        2.30160       -0.44640
