15
7275	2
C          1.12300       -0.47670        0.14460
N          2.51360       -0.09230        0.06310
C          3.01130        1.08850        0.27300
N          2.19630        2.22040        0.63350
O          0.86540        2.13500        0.76660
C          4.48960        1.22430        0.12710
C          5.17780        2.36120        0.29950
H          1.03880       -1.55870       -0.08510
H          0.52160        0.07600       -0.60740
H          0.73470       -0.31600        1.17260
H          2.63080        3.13290        0.81390
H          0.50100        2.50760       -0.07690
H          5.05220        0.33350       -0.14060
H          4.71330        3.29950        0.56460
H          6.25530        2.35370        0.16880
