11
7283	2
O          2.80640       -0.66190       -1.05600
N          2.24500        0.36170       -0.39570
C          3.04820        1.25710        0.36440
C          2.41180        2.39170        1.08260
O          1.20450        2.56170        1.02570
N          4.32400        1.06960        0.41940
O          5.11280        1.86830        1.10830
H          2.73810       -1.43270       -0.43630
H          1.22560        0.50080       -0.45720
H          3.01280        3.08170        1.66570
H          6.06500        1.70440        1.13210
