11
7258	1
F          0.91710        0.15260       -0.13420
C          2.28990        0.03690       -0.00670
C          2.71780       -0.91890        1.09010
C          1.83150       -1.58370        1.85740
F          0.48910       -1.44090        1.69860
C          4.16590       -1.12920        1.32620
O          4.99710       -0.54370        0.65010
H          2.70400        1.04460        0.20720
H          2.69940       -0.31570       -0.97660
H          2.18260       -2.25920        2.63240
H          4.50090       -1.80800        2.10500
