12
7328	1
F          1.04290        0.21560        0.37770
C          2.39800        0.14170        0.28100
C          2.99140       -0.55930       -0.70670
C          2.13050       -1.26490       -1.70920
C          2.60130       -1.99060       -2.73260
C          4.48280       -0.61240       -0.77300
O          5.16690       -0.02970        0.05480
H          2.99060        0.66540        1.02490
H          1.05100       -1.19090       -1.61100
H          3.65670       -2.12680       -2.91900
H          1.90260       -2.46830       -3.41200
H          4.98820       -1.16520       -1.55180
