13
7290	1
C          2.84160        1.03620        0.82700
O          2.26670        0.19160       -0.10120
C          2.97030       -0.59350       -0.96400
C          2.31840       -1.38430       -1.83310
N          0.90030       -1.42600       -1.87900
C          4.37630       -0.59350       -0.96400
N          5.52740       -0.59350       -0.96400
H          2.03980        1.55210        1.39400
H          3.46490        1.80110        0.31620
H          3.46500        0.45570        1.54040
H          2.88050       -2.01110       -2.52200
H          0.32490       -0.85080       -1.24680
H          0.43130       -2.04310       -2.55720
