14
7326	2
N          1.05650        0.50140       -0.79300
C          2.41800        0.24970       -0.46280
C          2.84520       -0.79810        0.29740
C          1.87990       -1.80580        0.86730
C          2.23960       -2.85540        1.62120
C          4.31570       -0.92620        0.55670
O          5.10720       -0.11510        0.09980
H          0.83030        1.32050       -1.37480
H          0.27930       -0.09090       -0.48260
H          3.15090        0.95080       -0.85210
H          0.82180       -1.71050        0.67850
H          3.26260       -3.07190        1.88810
H          1.47410       -3.53140        1.98960
H          4.71330       -1.73460        1.15120
