15
7305	1
C          2.16010        1.10430        0.83530
C          2.40870       -0.01390       -0.16560
C          2.95150       -1.25770        0.52310
N          2.23260       -2.19920        0.99020
N          0.88740       -2.16020        0.99990
C          4.34130       -1.43180        0.69400
C          5.52090       -1.57740        0.83790
H          1.80560        2.01310        0.32040
H          3.08440        1.35560        1.38090
H          1.39950        0.80540        1.57280
H          3.16030        0.33010       -0.90790
H          1.48600       -0.22700       -0.73340
H          0.45270       -3.06820        1.08070
H          0.49640       -1.53780        1.69840
H          6.55550       -1.73230        0.97870
