9
7353	1
F          0.86430        0.07190        0.02630
C          2.22500        0.06890        0.03890
C          2.89880       -0.19620        1.16540
C          2.19310       -0.48390        2.39070
C          1.68670       -0.73560        3.45620
C          4.30480       -0.19620        1.16540
N          5.45580       -0.19620        1.16540
H          2.75690        0.28600       -0.88360
H          1.16940       -0.94690        4.35550
