12
7347	1
F          0.97590        0.39810       -0.14630
C          2.33510        0.36360       -0.18930
C          2.98160       -0.37300       -1.10690
C          2.21490       -1.17400       -2.10480
C          2.80670       -1.92650       -3.04210
C          4.38760       -0.37300       -1.10690
C          5.57780       -0.37300       -1.10690
H          2.89130        0.94840        0.53920
H          1.12900       -1.15340       -2.07910
H          3.88670       -1.99120       -3.12280
H          2.19900       -2.48940       -3.74330
H          6.63600       -0.37320       -1.10720
