12
7333	2
N          0.92690        0.19270        0.18890
C          2.33890        0.07390        0.05830
C          2.98800       -0.42450       -1.03000
C          2.32660       -0.93260       -2.27460
O          1.11790       -0.94340       -2.42350
C          4.47380       -0.46680       -0.97580
O          5.12470       -0.90040       -1.91360
H          0.54280        0.58570        1.06000
H          0.26040       -0.09020       -0.53460
H          2.93690        0.41150        0.90150
H          2.94360       -1.30910       -3.08370
H          4.99910       -0.10960       -0.09470
