9
7337	1
F          0.94770       -0.05980       -0.06040
C          2.30740       -0.09040       -0.03590
C          2.96570       -1.00300        0.69460
C          2.22890       -2.00650        1.49780
O          2.83220       -2.83560        2.16150
C          4.37170       -1.00300        0.69460
N          5.52280       -1.00300        0.69460
H          2.85410        0.64320       -0.62310
H          1.14340       -2.01470        1.50440
