14
7325	1
C          1.06060       -0.46530       -0.04020
C          2.55010       -0.27520        0.09480
C          3.17200        0.70870        0.79030
C          2.43680        1.77670        1.54480
C          3.06790        2.74320        2.22740
C          4.57800        0.70870        0.79030
N          5.72900        0.70870        0.79030
H          0.79360       -0.42780       -1.11660
H          0.43450        0.27530        0.48300
H          0.79300       -1.46750        0.35420
H          3.16440       -1.00920       -0.42390
H          1.35740        1.80030        1.56170
H          4.15030        2.80240        2.26890
H          2.48940        3.49330        2.75730
