17
7375	1
C          3.08800        0.35970        1.09780
N          2.31480        0.10930       -0.11830
C          3.12170       -0.57530       -1.13630
C          4.27850        0.18740       -1.80280
F          3.81190        1.36730       -2.35270
C          3.10180       -2.09040       -1.10390
C          2.24090       -1.31470       -2.12060
H          2.42500        0.81110        1.86520
H          3.92120        1.06790        0.90200
H          3.49120       -0.59210        1.50560
H          1.96950        1.02050       -0.50000
H          4.75280       -0.41680       -2.60580
H          5.06000        0.42020       -1.05150
H          2.64450       -2.39660       -0.13830
H          4.11740       -2.43320       -1.39640
H          1.19390       -1.56500       -1.84610
H          2.63840       -1.62560       -3.11030
