10
7343	2
O          1.06390       -0.30140        0.25140
N          2.36740       -0.22570        0.07830
C          2.89040       -0.07880       -1.09170
C          2.02660        0.01160       -2.30420
O          2.51380        0.15070       -3.41480
C          4.36680       -0.00330       -1.19130
O          4.92330        0.13530       -2.26890
H          0.69980       -0.41160        1.13990
H          0.94700       -0.04560       -2.21170
H          4.96830       -0.07230       -0.29010
