11
7296	1
C          2.85180       -1.10560        0.66360
O          2.30140        0.12270        0.35370
C          3.05010        1.22680        0.07920
N          2.47870        2.34390       -0.19990
O          1.16710        2.44960       -0.22740
C          4.49490        1.16830        0.09490
N          5.65030        1.11030        0.11020
H          2.04360       -1.84320        0.84320
H          3.47200       -1.02390        1.58240
H          3.48180       -1.46410       -0.17910
H          0.75760        3.29950       -0.43990
