18
7365	1
C          3.41520       -0.39980        1.09190
C          2.67330        0.15230       -0.12210
C          3.31600       -0.31670       -1.44430
C          4.74000        0.15560       -1.78170
F          4.79450        1.53720       -1.76050
C          2.83500       -1.61920       -2.04980
C          2.37210       -0.25800       -2.62690
H          2.91860       -0.04850        2.02090
H          4.46720       -0.04690        1.10600
H          3.40060       -1.51030        1.07810
H          2.68270        1.26270       -0.08400
H          1.61330       -0.17960       -0.05720
H          5.06620       -0.19510       -2.78480
H          5.45600       -0.24680       -1.03660
H          2.18370       -2.13280       -1.31010
H          3.70410       -2.13180       -2.51540
H          1.27250       -0.25080       -2.46900
H          2.77020       -0.24890       -3.66410
