15
7293	1
C          1.90450       -0.45760       -0.65390
O          1.72960       -0.42350        0.71470
C          2.74640       -0.52460        1.61490
C          2.40260       -0.47110        3.06920
C          1.13610       -0.32910        3.47740
N          3.96490       -0.66220        1.18150
N          5.08300       -0.77600        1.98040
H          0.91700       -0.35520       -1.14880
H          2.35750       -1.42520       -0.95890
H          2.55500        0.38250       -0.97880
H          3.15840       -0.54460        3.83700
H          0.31730       -0.24810        2.76960
H          0.91170       -0.29290        4.53870
H          6.00580       -0.88070        1.53660
H          5.04090       -0.76300        3.00520
