14
7323	1
F          0.85510        0.21700        0.09620
C          2.20870        0.21460       -0.04430
C          2.88390       -0.93550       -0.27250
C          2.08860       -2.20630       -0.36490
C          2.60890       -3.42210       -0.58610
C          4.38390       -0.94850       -0.42960
C          5.17390        0.13530       -0.36240
H          2.70740        1.16860        0.03530
H          1.01000       -2.15270       -0.24580
H          3.66520       -3.59920       -0.71990
H          1.94710       -4.28100       -0.63570
H          4.88750       -1.88660       -0.61080
H          4.80030        1.13340       -0.18640
H          6.24570        0.01900       -0.48940
