12
7349	1
C          0.95670       -0.09740       -0.01930
C          2.45800       -0.07260        0.04820
C          3.12670        0.33110        1.14540
C          2.43650        0.76910        2.33530
C          1.78770        1.12180        3.29500
C          4.53270        0.33110        1.14540
N          5.68370        0.33110        1.14540
H          0.63270       -0.46410       -1.01570
H          0.55130        0.92510        0.13350
H          0.55130       -0.77710        0.75980
H          3.01320       -0.39570       -0.82990
H          1.27270        1.44000        4.15940
