15
7346	1
C          1.05560        0.51650       -0.16900
C          2.54510        0.31380       -0.28380
C          3.16740       -0.73450       -0.87790
C          2.43170       -1.87220       -1.52260
C          3.06210       -2.90200       -2.10620
C          4.57340       -0.73450       -0.87790
C          5.76360       -0.73450       -0.87790
H          0.78820        0.58630        0.90580
H          0.42950       -0.27230       -0.61600
H          0.78820        1.47440       -0.66130
H          3.15930        1.09580        0.15940
H          1.35240       -1.89700       -1.53670
H          4.14430       -2.96580       -2.14240
H          2.48300       -3.70070       -2.55880
H          6.82180       -0.73480       -0.87810
