10
7359	1
F          0.96090       -0.08480        0.07340
C          2.32150       -0.08340        0.05750
C          2.99340        0.02330       -1.09610
C          2.28660        0.13920       -2.34870
C          1.76270        0.22020       -3.43190
C          4.39940        0.02330       -1.09610
C          5.58950        0.02330       -1.09610
H          2.85540       -0.17060        1.00030
H          1.26240        0.33850       -4.35750
H          6.64780        0.02330       -1.09610
