12
7350	2
N          1.07340        0.06820       -0.13030
C          2.48860       -0.03610       -0.03870
C          3.12700       -0.93300        0.74910
C          2.41980       -1.91740        1.61360
O          3.05780       -2.70010        2.30100
C          4.53300       -0.93300        0.74910
C          5.72320       -0.93300        0.74910
H          0.66380        0.77810       -0.75380
H          0.43400       -0.53530        0.39970
H          3.08300        0.64900       -0.64030
H          1.34140       -1.96630        1.65650
H          6.78150       -0.93300        0.74910
