11
7317	1
O          2.65570        1.15090        0.28180
N          2.12370        0.04080       -0.25500
C          2.86920       -1.15430       -0.13180
N          2.30710       -2.27470        0.05960
O          1.01410       -2.37220        0.10280
C          4.27370       -1.12700       -0.16310
C          5.46930       -1.09730       -0.19060
H          3.38910        1.43190       -0.31160
H          1.12510       -0.09600       -0.09190
H          0.71320       -3.25810        0.24340
H          6.52560       -1.10510       -0.21040
