12
7355	1
O          1.12100        0.21420       -0.34820
N          2.42400        0.09100       -0.21650
C          2.95610       -0.77870        0.56910
C          2.11140       -1.70940        1.38090
C          2.63140       -2.62570        2.20750
C          4.39620       -0.81970        0.62490
C          5.60090       -0.79430        0.62210
H          0.76040        0.88400       -0.94550
H          1.02900       -1.64880        1.30290
H          3.70320       -2.73890        2.33050
H          1.97290       -3.27640        2.77490
H          6.65790       -0.76720        0.61570
