18
7450	1
N          2.79950        1.43800       -0.28600
C          2.30470        0.07640       -0.10130
C          2.78540       -0.50240        1.22890
O          4.19570       -0.57080        1.23250
C          4.63970       -1.06640        2.47740
C          6.16440       -1.13150        2.47920
O          6.71430        0.14820        2.31560
H          2.41380        1.81060       -1.18360
H          3.84130        1.42000       -0.37620
H          2.64560       -0.56930       -0.94110
H          1.19290        0.09380       -0.09980
H          2.34800       -1.52180        1.33030
H          2.41290        0.15850        2.04540
H          4.25730       -2.09870        2.64750
H          4.32430       -0.39550        3.30930
H          6.52950       -1.82170        1.68420
H          6.51300       -1.54160        3.45080
H          6.72600        0.33330        1.34030
