17
7395	1
N          2.84330       -1.48300       -0.36600
C          2.31050       -0.12620       -0.29850
C          2.87210        0.61230        0.92520
C          2.50720        0.15940        2.34590
N          1.05970        0.17900        2.52710
C          4.15160        1.33400        0.75260
O          2.88910        1.99920        0.77450
H          2.47670       -1.94020       -1.23180
H          2.49300       -2.03410        0.45040
H          1.20020       -0.15560       -0.24150
H          2.58460        0.41260       -1.23280
H          2.98310        0.81500        3.10980
H          2.88340       -0.87320        2.50490
H          0.71920        1.16430        2.44000
H          0.84160       -0.14860        3.49580
H          4.56990        1.46550       -0.26730
H          4.71230        1.67590        1.64770
