22
7411	1
C          0.90380        0.15260       -0.08890
C          2.42980        0.14240       -0.07710
C          2.97200        0.09880        1.35600
C          4.50520        0.09060        1.36410
C          5.04920        0.05170        2.79560
N          6.51550        0.03230        2.77610
C          7.05130       -0.04560        4.13540
H          0.53940        0.18570       -1.13730
H          0.51940        1.04540        0.44910
H          0.50750       -0.76470        0.39650
H          2.79810        1.05880       -0.58800
H          2.78730       -0.74770       -0.63950
H          2.59720       -0.81790        1.86300
H          2.60740        0.99030        1.91280
H          4.88040        1.00580        0.85520
H          4.87380       -0.80170        0.81160
H          4.67000       -0.86710        3.29700
H          4.68540        0.94420        3.35430
H          6.86500        0.91740        2.33860
H          6.71240       -0.97990        4.63250
H          6.73290        0.83430        4.73710
H          8.16080       -0.06120        4.09340
