21
7412	1
C          0.96230       -0.00830       -1.73630
N          2.32810       -0.28900       -2.17850
C          2.96710       -1.27750       -1.30170
C          4.39760       -1.58110       -1.77240
C          4.48470       -2.12710       -3.21090
C          3.77280       -3.47280       -3.41530
N          4.32430       -4.49780       -2.53350
H          0.50170        0.73800       -2.41730
H          0.95830        0.40600       -0.70410
H          0.34640       -0.93240       -1.77080
H          2.87350        0.60410       -2.14240
H          2.37200       -2.21560       -1.28200
H          3.01710       -0.88570       -0.26060
H          4.86230       -2.30740       -1.07110
H          4.98990       -0.64150       -1.72240
H          5.55870       -2.25590       -3.46790
H          4.05820       -1.38240       -3.91740
H          3.89750       -3.78960       -4.47440
H          2.68440       -3.36570       -3.22520
H          5.32970       -4.65470       -2.77610
H          3.81210       -5.39320       -2.70400
