19
7455	1
C          0.07230       -0.46100        1.08590
C          1.28520       -0.33900        0.16750
C          2.55280       -0.85610        0.84640
O          3.63710       -0.71460       -0.04700
C          4.80680       -1.27700        0.51610
O          4.77540       -2.68980        0.45750
C          5.01770       -3.11950       -0.86340
H         -0.82960       -0.07770        0.56380
H          0.22700        0.13360        2.01140
H         -0.10010       -1.52380        1.35920
H          1.42440        0.72890       -0.10870
H          1.09860       -0.92450       -0.75900
H          2.39190       -1.92750        1.10830
H          2.72910       -0.25310        1.76650
H          4.95340       -0.95600        1.57270
H          5.70110       -0.86140       -0.00190
H          4.93970       -4.22580       -0.88940
H          6.04830       -2.85720       -1.18970
H          4.25260       -2.72560       -1.56860
