21
7445	1
C          3.43820       -0.15480        4.41100
C          3.32360        1.36580        4.49470
C          2.84650        1.97780        3.17230
O          3.73090        1.65830        2.11250
C          4.72220        2.65550        1.93870
C          4.28050        3.70160        0.90840
C          3.99120        3.07410       -0.45350
H          3.77070       -0.55640        5.39130
H          4.18140       -0.44840        3.63960
H          2.45330       -0.60230        4.15880
H          4.31090        1.79220        4.77260
H          2.59480        1.62560        5.29260
H          2.69560        3.07590        3.29210
H          1.84490        1.56930        2.91950
H          5.65030        2.15960        1.58290
H          5.00310        3.15590        2.89470
H          5.09130        4.45250        0.79070
H          3.37030        4.22570        1.27020
H          4.89850        2.56610       -0.84430
H          3.69050        3.86640       -1.17090
H          3.16430        2.33680       -0.37590
