18
7477	2
C          0.80850       -0.00450       -0.04850
C          2.33430        0.01360       -0.05650
C          2.88050        1.06070        0.92410
C          4.41860        1.06980        0.95510
N          4.99930        1.37680       -0.34200
C          4.85440        2.58300       -0.95120
O          4.22430        3.48610       -0.42270
H          0.44140       -0.77010       -0.76410
H          0.40920        0.98670       -0.35240
H          0.43040       -0.25530        0.96550
H          2.68110        0.24340       -1.08710
H          2.70630       -0.99460        0.22870
H          2.51630        0.82330        1.94760
H          2.49280        2.06440        0.65210
H          4.76240        0.06150        1.27540
H          4.78010        1.80410        1.70730
H          5.56580        0.65440       -0.81140
H          5.31790        2.75430       -1.91740
