21
7423	1
C          1.08830       -0.14760       -0.02160
C          2.61090       -0.07510       -0.03810
N          3.08340        0.36360       -1.35590
C          4.54960        0.39120       -1.39760
C          5.02990        0.82030       -2.78760
C          6.55950        0.85270       -2.85730
N          6.99710        1.28000       -4.18220
H          0.74100       -0.48740        0.97700
H          0.73250       -0.86680       -0.78960
H          0.65260        0.85280       -0.22920
H          3.01060       -1.08770        0.19130
H          2.94880        0.63470        0.75020
H          2.72400        1.33140       -1.53550
H          4.94940       -0.62450       -1.17950
H          4.93950        1.10430       -0.63580
H          4.63520        1.83440       -3.01740
H          4.63970        0.10520       -3.54480
H          6.97280       -0.15670       -2.63490
H          6.94700        1.57010       -2.10100
H          6.69800        0.56880       -4.88860
H          8.04220        1.31470       -4.19050
