14
7558	2
F          3.45720        1.27930       -2.98770
C          2.15350        1.48290       -2.57240
C          1.72500        0.36620       -1.63110
O          2.56900        0.36020       -0.50460
N          2.12330       -0.61760        0.30650
C          1.34260       -0.32010        1.45780
N          1.01190        0.88820        1.74730
H          1.48870        1.49840       -3.46180
H          2.08320        2.46320       -2.05490
H          1.79890       -0.60060       -2.17940
H          0.66980        0.55880       -1.32950
H          2.39280       -1.59570        0.12120
H          1.01960       -1.12830        2.10550
H          1.29770        1.68490        1.16010
