17
7518	1
C          0.55960        0.01320        3.01720
C          2.07800       -0.05980        3.06660
O          2.56200       -0.40360        1.78550
C          3.96500       -0.57870        1.82700
O          4.29900       -1.79020        2.40980
C          3.95060       -3.02520        1.94820
C          3.26360       -3.22230        0.81290
H          0.16300        0.28560        4.01810
H          0.14120       -0.97190        2.71980
H          0.23900        0.78130        2.28170
H          2.35370       -0.83130        3.82140
H          2.45980        0.93990        3.37430
H          4.46800        0.25280        2.37140
H          4.36410       -0.53920        0.79110
H          4.24860       -3.89260        2.52820
H          2.94120       -2.39910        0.18620
H          3.02040       -4.23320        0.50190
