16
7511	1
C          1.19860        0.01870        0.26780
O          2.60550       -0.04540        0.21700
C          2.99380       -0.98360       -0.76280
C          4.51510       -1.04550       -0.81210
O          4.91110       -1.95650       -1.76300
N          6.19020       -2.17950       -1.98380
C          6.55660       -3.02970       -2.87130
H          0.91110        0.75890        1.04240
H          0.75890       -0.95730        0.57160
H          0.77400        0.37580       -0.69680
H          2.62960       -0.67560       -1.77020
H          2.61650       -2.00060       -0.50630
H          4.90650       -1.35240        0.18280
H          4.91930       -0.04140       -1.06770
H          7.61220       -3.20640       -3.04570
H          5.81870       -3.57630       -3.45170
