18
7563	1
N          0.83130       -0.02340       -0.00740
C          2.29050       -0.03130       -0.00150
C          2.82640       -0.35350       -1.39970
C          4.35930       -0.36010       -1.41350
C          4.89400       -0.68700       -2.81010
C          6.36120       -0.69080       -2.80730
C          7.56670       -0.69010       -2.80380
H          0.49850        0.19140        0.96050
H          0.48290       -0.97780       -0.25620
H          2.65600       -0.78820        0.72820
H          2.65590        0.97100        0.31300
H          2.45170        0.40910       -2.11760
H          2.45230       -1.35330       -1.71250
H          4.72880       -1.12240       -0.69150
H          4.73360        0.64030       -1.10090
H          4.54090        0.07210       -3.54040
H          4.53580       -1.68880       -3.13020
H          8.62500       -0.69160       -2.80140
