20
7512	1
C          2.57680       -1.40020        2.45160
C          3.75940       -1.14470        1.52480
N          3.82240       -2.17930        0.48690
C          4.97940       -1.96650       -0.38970
C          5.06230       -3.08430       -1.43120
C          6.25970       -2.88410       -2.32080
C          6.13440       -2.72930       -3.64220
H          2.54300       -0.61880        3.23950
H          2.67960       -2.39410        2.93560
H          1.62580       -1.37070        1.87930
H          4.68970       -1.16140        2.13410
H          3.64750       -0.13840        1.06280
H          2.95010       -2.12880       -0.09140
H          5.91410       -1.97120        0.21500
H          4.88950       -0.98480       -0.90850
H          4.12330       -3.09850       -2.02760
H          5.16280       -4.06340       -0.91620
H          7.25050       -2.86600       -1.87650
H          5.15860       -2.74270       -4.11750
H          7.01700       -2.58700       -4.25680
