17
7508	1
C          1.10600        0.70690        0.23810
N          2.42820        0.25430       -0.19520
C          3.03530       -0.61960        0.81450
C          4.40190       -1.10380        0.33650
O          4.95930       -1.92800        1.28560
N          6.14630       -2.46420        1.09050
C          6.66760       -3.22840        1.97880
H          0.66600        1.35900       -0.54560
H          1.17790        1.29000        1.18270
H          0.42760       -0.16090        0.38510
H          3.03380        1.09840       -0.32700
H          2.38500       -1.50670        0.98510
H          3.15790       -0.07070        1.77590
H          5.06980       -0.23050        0.16840
H          4.28540       -1.66210       -0.61830
H          7.64590       -3.66400        1.80840
H          6.13850       -3.44380        2.90270
