15
7536	2
O          2.77870        1.21850       -0.69290
C          2.36630       -0.01430       -0.17090
C          2.84860       -0.15950        1.27220
N          4.31280       -0.14070        1.33420
N          4.70910       -0.31180        2.65670
C          5.49260       -1.35900        2.99880
O          5.84920       -1.50630        4.15690
H          2.42880        1.25540       -1.62080
H          2.78520       -0.84630       -0.78000
H          1.25460       -0.06720       -0.17690
H          2.47530       -1.12940        1.66960
H          2.42360        0.66540        1.88780
H          4.66920        0.79080        1.01790
H          4.41490        0.36810        3.37670
H          5.81020       -2.07340        2.24540
