18
7488	2
C          0.97530        0.03690        0.00390
N          2.43670        0.01440       -0.05900
C          2.93660        1.09590       -0.91580
C          4.46760        1.11280       -0.93630
N          4.99140        1.30530        0.40790
C          5.80010        2.40480        0.84220
N          6.12470        3.39310        0.08230
H          0.62250       -0.78990        0.65570
H          0.53340       -0.09690       -1.00810
H          0.62200        0.99510        0.44220
H          2.73460       -0.90530       -0.46140
H          2.57930        2.07990       -0.53790
H          2.56580        0.95790       -1.95680
H          4.78450        1.89450       -1.64540
H          4.84660        0.14680       -1.33410
H          4.77170        0.58330        1.11030
H          6.14960        2.41060        1.86950
H          5.83960        3.48970       -0.89740
