16
7526	1
O          3.01190       -1.46710       -0.35550
C          2.31850       -0.31300        0.03140
C          2.73360        0.86870       -0.84560
N          4.16550        1.16300       -0.68000
C          4.58600        2.31110       -1.49330
C          4.01440        3.59110       -0.95750
O          3.30570        4.29220       -1.66140
H          2.67280       -2.19870        0.22290
H          2.54040       -0.07320        1.09530
H          1.22500       -0.47600       -0.09650
H          2.12760        1.74780       -0.53560
H          2.50440        0.63470       -1.90970
H          4.71390        0.33240       -1.00530
H          4.29820        2.16030       -2.55880
H          5.69310        2.39660       -1.44950
H          4.23260        3.89680        0.06050
