18
7522	1
C          1.08910        0.18140        0.01130
C          2.61180        0.08510        0.03880
C          3.07450       -1.37110        0.14290
N          4.54010       -1.43250        0.15560
C          5.00250       -2.82290        0.19340
C          6.49920       -2.85890        0.14570
O          7.13400       -3.37210        1.05320
H          0.78500        1.24650       -0.06610
H          0.65860       -0.24480        0.94240
H          0.68280       -0.36870       -0.86410
H          2.99270        0.66090        0.91010
H          3.01960        0.53590       -0.89200
H          2.68350       -1.93230       -0.73530
H          2.66500       -1.82550        1.07390
H          4.89110       -0.93910        1.01100
H          4.61890       -3.37660       -0.69110
H          4.63830       -3.32500        1.11870
H          7.02370       -2.42760       -0.70060
