16
7500	1
F          4.18710       -0.59710        1.56690
C          2.89260       -0.96670        1.24690
C          2.07650        0.25420        0.82510
C          2.66310        0.92420       -0.41750
O          1.88390        2.01320       -0.76100
C          2.10920        2.84340       -1.81800
C          3.13860        2.69290       -2.66520
H          2.42440       -1.43270        2.13940
H          2.91590       -1.71670        0.42770
H          2.05240        0.98380        1.66360
H          1.03530       -0.06900        0.60680
H          2.67560        0.19400       -1.25680
H          3.70080        1.26190       -0.20160
H          1.42120        3.66650       -1.98130
H          3.85920        1.89040       -2.55450
H          3.26260        3.38900       -3.48850
