19
7539	1
C          0.46410       -0.82480       -0.26330
C          1.85470       -0.40240        0.20300
C          2.79250       -0.16810       -0.98070
O          4.05780        0.21880       -0.48900
C          4.93980        0.43050       -1.56940
C          6.25460        0.90840       -1.02360
C          7.39080        0.23530       -1.23040
H         -0.19080       -0.98650        0.61870
H          0.52150       -1.77140       -0.84180
H          0.01350       -0.03420       -0.90040
H          2.27560       -1.19880        0.85470
H          1.76890        0.53400        0.79620
H          2.35700        0.63750       -1.61610
H          2.87020       -1.11920       -1.55680
H          4.55720        1.23030       -2.24280
H          5.08270       -0.51280       -2.14610
H          6.28020        1.82730       -0.44510
H          7.40020       -0.68640       -1.80410
H          8.32350        0.60980       -0.82120
