15
7587	2
N          2.05600        2.06350       -0.43250
C          1.71780        1.54720        0.69350
N          2.69190        1.00180        1.57880
C          4.11470        0.97960        1.27580
C          4.91610        1.78900        2.30750
C          4.89590        1.23030        3.70750
O          4.30460        0.19620        3.97620
H          1.34170        2.45510       -1.06320
H          0.67010        1.52560        0.98000
H          2.36180        0.59910        2.46710
H          4.31380        1.42100        0.27650
H          4.47530       -0.07130        1.25240
H          4.52730        2.82970        2.32600
H          5.97770        1.81990        1.98150
H          5.43780        1.75050        4.49020
