18
7525	1
O          2.53650       -1.01830       -0.19760
C          1.92280        0.22120        0.02440
C          2.44490        1.25150       -0.97680
N          3.88840        1.45780       -0.80560
C          4.38050        2.47900       -1.73500
C          5.84430        2.72040       -1.48940
C          6.75860        2.52170       -2.44350
H          2.15480       -1.63890        0.47600
H          2.13950        0.57550        1.05710
H          0.82330        0.12140       -0.11550
H          1.90700        2.20880       -0.79620
H          2.22060        0.90490       -2.01100
H          4.38890        0.56000       -1.00840
H          3.84530        3.43860       -1.56480
H          4.19860        2.15580       -2.78590
H          6.16410        3.06440       -0.51010
H          6.47080        2.17680       -3.43210
H          7.80760        2.70440       -2.23440
