15
7510	1
C          0.97330       -0.00970        0.23900
O          2.37490       -0.01130        0.09110
C          2.76280        1.09300       -0.69750
C          4.28900        1.10150       -0.81680
O          4.73950        2.19330       -1.53890
C          4.53990        2.37340       -2.87080
O          3.99410        1.51720       -3.55090
H          0.68680       -0.88710        0.85430
H          0.46150       -0.12030       -0.74290
H          0.62440        0.89670        0.78200
H          2.45540        2.04930       -0.21450
H          2.31870        1.01570       -1.71460
H          4.65440        0.15890       -1.28080
H          4.71400        1.16750        0.20750
H          4.89470        3.28270       -3.34280
