19
7579	1
C          2.07500       -1.50460       -1.25490
C          2.58890       -0.44920       -0.61590
C          3.04330        0.77980       -1.35660
C          4.53290        1.03110       -1.10390
C          5.01030        2.29120       -1.83210
C          6.47980        2.50860       -1.58940
C          6.93830        3.61920       -1.00420
H          1.75600       -2.37550       -0.69170
H          1.96960       -1.50840       -2.33550
H          2.68030       -0.47750        0.46620
H          2.44990        1.64660       -0.99410
H          2.87070        0.67070       -2.45060
H          5.11670        0.15400       -1.46290
H          4.70620        1.15360       -0.01130
H          4.41630        3.16430       -1.48110
H          4.84920        2.17620       -2.92560
H          7.18510        1.74280       -1.89950
H          6.26020        4.40390       -0.68290
H          8.00400        3.74590       -0.84400
