20
7678	1
C          0.94070        0.16270       -0.06280
C          2.46230        0.06950       -0.08150
N          2.92570       -0.86120        0.95340
C          4.38970       -0.93340        0.96980
C          4.83670       -1.85150        2.07450
C          5.56200       -2.95170        1.82090
C          6.00600       -3.86880        2.92160
H          0.59980        0.87370       -0.84460
H          0.59250        0.52340        0.92830
H          0.49170       -0.83250       -0.26630
H          2.87680        1.08460        0.10740
H          2.79160       -0.27540       -1.08750
H          2.54790       -1.81560        0.74180
H          4.81710        0.07310        1.17070
H          4.76440       -1.28390       -0.01950
H          4.55770       -1.60710        3.09590
H          5.84000       -3.19770        0.80000
H          5.66670       -3.51830        3.92010
H          7.11390       -3.92680        2.92340
H          5.59230       -4.88250        2.74130
