20
7670	1
C          1.17720       -0.18100        0.31970
N          2.62400       -0.18210        0.10190
C          2.93450       -0.20480       -1.33180
C          4.45000       -0.17660       -1.54070
C          4.77900       -0.16910       -3.01010
C          5.50950       -1.14630       -3.56950
C          5.84060       -1.13810       -5.03250
H          0.97000       -0.15710        1.41050
H          0.71250       -1.09690       -0.10770
H          0.71640        0.72070       -0.13810
H          3.02000       -1.04040        0.55240
H          2.48700        0.68760       -1.82500
H          2.51570       -1.12490       -1.79990
H          4.90350       -1.05850       -1.03610
H          4.87070        0.74270       -1.07970
H          4.41280        0.65270       -3.61980
H          5.87660       -1.96880       -2.96230
H          5.41620       -0.25220       -5.55210
H          5.43240       -2.05570       -5.50500
H          6.94330       -1.12740       -5.15690
