16
7685	1
C          1.74050       -0.88560       -0.70550
C          3.11310       -0.23920       -0.81430
O          3.34590        0.54230        0.33940
C          4.66310        1.05600        0.32900
C          5.60980        0.07540        0.95450
N          6.61810       -0.36340        0.29200
O          7.44960       -1.22420        0.83780
H          1.54170       -1.50100       -1.60830
H          0.95650       -0.10300       -0.62350
H          1.69770       -1.53860        0.19200
H          3.12070        0.39990       -1.72600
H          3.86490       -1.05620       -0.90550
H          4.67390        1.98440        0.93680
H          4.99690        1.35770       -0.69260
H          5.43450       -0.26110        1.97320
H          8.20670       -1.55100        0.33370
