14
7628	2
C          0.61700        0.29180        3.27670
C          0.87460        0.74990        2.04850
C          1.80190        0.02010        1.11500
O          2.86140        0.86210        0.71730
N          3.78220        0.84220        1.70040
C          4.89590        0.08490        1.57390
O          5.73810        0.07860        2.45740
H         -0.05570        0.83940        3.92870
H          1.07230       -0.62520        3.63840
H          0.40580        1.67030        1.71380
H          1.22730       -0.26100        0.20820
H          2.17940       -0.93830        1.54520
H          3.64880        1.42870        2.53940
H          5.04480       -0.52150        0.68590
