13
7624	1
O          2.66170        1.02400       -3.26030
C          2.08010        1.35200       -2.23790
C          2.80740        1.42640       -0.92550
O          4.16120        1.03250       -1.06070
C          4.98230        2.15700       -1.29840
C          6.37280        1.69390       -1.59560
O          7.25170        2.50810       -1.82780
H          1.02240        1.59010       -2.27660
H          2.31770        0.72880       -0.21480
H          2.69130        2.44470       -0.48540
H          5.02160        2.80440       -0.39380
H          4.62400        2.73580       -2.18010
H          6.60810        0.63410       -1.60670
