13
7619	2
O          1.46670        0.80790        0.35490
C          2.38560        0.28110       -0.25160
C          2.73830       -1.15250        0.00230
N          4.12220       -1.24800        0.46890
N          4.45060       -2.60010        0.62330
C          4.81250       -3.13580        1.82070
O          4.86080       -2.45240        2.83200
H          2.94910        0.85560       -0.97970
H          2.62020       -1.71030       -0.95210
H          2.05050       -1.58980        0.76160
H          4.20890       -0.72760        1.37330
H          4.42870       -3.21800       -0.20250
H          5.06210       -4.19020        1.88140
