13
7650	2
N          1.16630        0.13720        0.28310
C          2.40800       -0.15940        0.31970
N          2.86160       -1.42670       -0.07800
O          4.12550       -1.49290       -0.53900
C          4.74340       -2.64770       -0.04630
C          6.07210       -2.75700       -0.67680
C          7.16370       -2.83360       -1.19320
H          0.89860        1.11050        0.47850
H          3.13500        0.60880        0.52190
H          2.15440       -2.10800       -0.39760
H          4.16510       -3.54340       -0.34270
H          4.86500       -2.59920        1.05610
H          8.14610       -2.90730       -1.59310
