16
7668	1
N          1.05730       -0.86430        1.00370
N          2.42600       -0.73970        1.04490
C          2.99560        0.41060        0.95440
C          4.49260        0.51840        1.00330
C          4.96080        1.40010        2.16800
C          4.58880        0.81530        3.53180
F          5.06410        1.64000        4.53480
H          0.62830       -1.79710        1.07870
H          0.44990       -0.03710        0.89960
H          2.40150        1.31420        0.84160
H          4.83710        0.97170        0.04950
H          4.95470       -0.48970        1.09400
H          4.52220        2.41710        2.06750
H          6.06740        1.49240        2.11590
H          5.04110       -0.19210        3.65170
H          3.48640        0.73120        3.63470
