19
7674	1
C          1.32800       -1.19360       -2.77360
O          2.71030       -0.94160       -2.66660
C          3.13550       -1.22500       -1.35000
C          4.63650       -0.96330       -1.22660
C          5.41970       -1.84430       -2.16580
C          6.33040       -2.71880       -1.71080
C          7.11080       -3.59500       -2.64550
H          1.01120       -0.96380       -3.81160
H          0.74160       -0.52980       -2.10000
H          1.09660       -2.26690       -2.59290
H          2.94540       -2.29190       -1.08790
H          2.61950       -0.55630       -0.62340
H          4.93940       -1.14050       -0.17090
H          4.84830        0.09970       -1.47090
H          5.23610       -1.75950       -3.23360
H          6.51770       -2.80630       -0.64440
H          6.83700       -3.42040       -3.70820
H          6.91370       -4.65880       -2.39890
H          8.19400       -3.38920       -2.52010
