19
7686	2
C          3.02170       -1.30120       -0.99450
C          2.40330        0.05420       -0.65410
C          2.86570        0.57470        0.70900
N          4.29660        0.78020        0.71070
C          4.91510        1.22350        1.74990
N          6.32320        1.41560        1.72750
C          7.11180        1.12410        0.55190
H          2.64510       -1.64330       -1.98140
H          2.74380       -2.05480       -0.22720
H          4.12850       -1.22560       -1.04780
H          1.29730       -0.05510       -0.63780
H          2.67110        0.79050       -1.44290
H          2.58530       -0.15330        1.50250
H          2.35430        1.54080        0.91470
H          4.36390        1.45520        2.65830
H          6.79200        1.77160        2.57350
H          6.76970        1.75180       -0.29810
H          7.01000        0.05090        0.28500
H          8.18210        1.34360        0.75070
