15
7592	1
C          2.91610       -1.95170        2.67370
N          4.01610       -1.96160        2.00880
N          4.02490       -1.83590        0.63750
C          5.27630       -1.84060       -0.08410
C          6.00570       -3.17400        0.10980
C          7.30660       -3.19200       -0.63590
O          7.32510       -3.07120       -1.85070
H          2.93940       -2.05260        3.75300
H          1.95950       -1.84360        2.17040
H          3.14160       -1.71780        0.11600
H          5.91050       -1.00280        0.27930
H          5.07200       -1.68620       -1.16650
H          5.36680       -4.00770       -0.25380
H          6.21340       -3.33000        1.19040
H          8.23850       -3.32320       -0.09560
