15
7611	1
C          1.59770       -0.58060        1.16180
C          2.42070        0.23620        0.49490
C          2.79560       -0.00950       -0.94120
N          4.25250       -0.16130       -1.04530
C          4.71120       -0.32790       -2.43210
C          4.22160       -1.58130       -3.03150
N          3.83850       -2.56540       -3.50500
H          1.35340       -0.37170        2.19850
H          1.16500       -1.45610        0.68690
H          2.83480        1.10120        1.00330
H          2.46390        0.86780       -1.53840
H          2.28390       -0.91710       -1.33250
H          4.57110       -0.97530       -0.46850
H          5.82130       -0.35360       -2.43960
H          4.38880        0.53370       -3.05450
