16
7642	1
C          1.10610        0.31460        0.83210
C          2.15130        0.81560        0.16000
C          2.88310        0.08880       -0.92510
N          4.28450       -0.04730       -0.55000
C          5.03350       -0.74510       -1.58960
C          6.42660       -0.91200       -1.15700
C          7.56780       -1.04990       -0.80070
H          0.61480        0.89420        1.60750
H          0.72210       -0.67990        0.62880
H          2.50210        1.81860        0.39570
H          2.79090        0.67080       -1.84980
H          2.43390       -0.89600       -1.10110
H          4.34200       -0.59120        0.31070
H          5.00750       -0.17430       -2.52480
H          4.59730       -1.73180       -1.78460
H          8.57530       -1.16560       -0.47590
