14
7739	1
O          0.76570        0.12760        1.62580
N          2.05260        0.32970        1.80840
C          2.86190        0.31500        0.80980
C          4.34100        0.54360        0.99120
C          4.75310        0.78720        2.45450
C          6.23200        1.01400        2.62230
O          6.99120        0.99770        1.66520
H          0.16260        0.13990        2.38100
H          2.48190        0.13460       -0.19250
H          4.62950        1.42520        0.37910
H          4.87630       -0.35060        0.60510
H          4.46770       -0.09430        3.06820
H          4.22080        1.68250        2.84200
H          6.63050        1.19570        3.61480
