13
7748	2
O          0.72800       -0.93660        1.42070
N          2.02900       -1.05110        1.57820
C          2.83660       -0.45190        0.77820
C          4.33510       -0.56080        0.92880
N          4.75470       -1.39430        2.04700
C          6.06830       -1.59670        2.32230
O          6.94020       -1.08320        1.63680
H          0.12620       -1.39000        2.02600
H          2.44130        0.15310       -0.03380
H          4.73990        0.46500        1.06680
H          4.74330       -0.98360       -0.01440
H          4.05850       -1.84950        2.65480
H          6.35150       -2.22300        3.16240
