17
7699	1
C          1.06020        0.19590        0.45270
C          2.47730        0.29550       -0.01210
N          3.18230        1.33210        0.27750
N          4.48940        1.44920       -0.13940
C          5.26750        2.61640        0.21160
C          4.68910        3.88920       -0.41220
O          3.40910        4.16210        0.09480
H          0.39030        0.10250       -0.42710
H          0.76720        1.09600        1.03480
H          0.94590       -0.70160        1.09520
H          2.90120       -0.51690       -0.59660
H          4.93660        0.68970       -0.67700
H          6.30460        2.48560       -0.16710
H          5.31030        2.71840        1.31740
H          4.67800        3.79910       -1.52400
H          5.34810        4.74840       -0.16600
H          2.75360        3.89140       -0.59990
