16
7703	2
C          1.00180       -0.03850        0.28720
C          2.47680       -0.21730       -0.05960
N          3.08400        1.04270       -0.42310
N          4.41550        1.07970       -0.76900
C          4.99180        2.18250       -1.09850
N          6.36470        2.19360       -1.45050
O          7.07890        1.05840       -1.45520
H          0.56110       -1.01990        0.56210
H          0.45000        0.36970       -0.58620
H          0.89230        0.65660        1.14680
H          2.56700       -0.92670       -0.91020
H          3.00850       -0.64040        0.81970
H          2.52170        1.90950       -0.42300
H          4.43280        3.11460       -1.10990
H          6.81470        3.08050       -1.72010
H          7.50760        1.02350       -0.56200
