15
7786	1
C         -0.30470       -0.92300       -0.21420
C          0.91710       -0.05350       -0.26280
C          2.12570       -0.56020       -0.57690
O          3.25850        0.19620       -0.63160
C          3.33020        1.55300       -0.38190
C          4.74780        2.00410       -0.53080
O          5.04230        2.85530       -1.35460
H         -0.74060       -0.88360        0.80560
H         -0.07560       -1.98190       -0.46100
H         -1.05210       -0.54370       -0.94160
H          0.79720        1.00030       -0.03640
H          2.21400       -1.61930       -0.79860
H          2.99990        1.76620        0.65760
H          2.68070        2.10380       -1.09820
H          5.52070        1.57380        0.09780
