15
7768	2
C          0.87530       -1.84770        0.95140
N          2.31200       -1.78300        1.06550
C          2.99420       -0.85870        0.48240
N          4.40990       -0.81240        0.60730
C          5.13160       -1.80080        1.39250
C          6.62310       -1.58140        1.40240
O          7.13940       -0.65390        0.79870
H          0.50250       -2.71760        1.53020
H          0.58140       -1.97180       -0.11300
H          0.41720       -0.92150        1.36000
H          2.49120       -0.10080       -0.11410
H          4.91250       -0.05440        0.12290
H          4.93400       -2.81190        0.97660
H          4.77050       -1.76660        2.44260
H          7.25210       -2.26650        1.96100
