14
7776	4
N          0.74010       -1.56780        1.11430
N          2.09850       -1.73480        0.98150
C          2.87030       -0.74430        0.69610
N          4.27460       -0.92880        0.56120
N          4.85550       -2.17360        0.73110
C          6.26090       -2.41270        0.60690
N          7.11200       -1.48780        0.32580
H          0.14740       -2.37780        1.34300
H          0.30210       -0.64230        0.98860
H          2.45370        0.24990        0.55460
H          4.83970       -0.10290        0.33300
H          4.26070       -2.98380        0.95940
H          6.62770       -3.42280        0.75710
H          6.86320       -0.50560        0.16680
