11
7783	2
O          0.63890        1.46790       -0.17790
N          1.94400        1.40860       -0.02370
C          2.65380        0.65140       -0.77940
N          4.05740        0.59280       -0.60750
O          4.77940       -0.19000       -1.39070
C          6.12780       -0.29560       -1.28250
O          6.74600        0.33940       -0.44130
H          0.11010        2.03990        0.39420
H          2.17980        0.05290       -1.55360
H          4.50230        1.16310        0.12900
H          6.66530       -0.95520       -1.95460
