15
7767	2
O          1.84440        1.57150       -0.39520
N          2.98280        1.08500       -0.83990
C          3.87210        0.65480       -0.01770
N          5.10520        0.12730       -0.48990
C          5.40680        0.05510       -1.90650
C          6.76050       -0.56580       -2.12780
C          7.74150        0.09160       -2.75360
H          1.17980        1.89330       -1.01880
H          3.68520        0.69190        1.05240
H          5.79250       -0.20760        0.20280
H          5.36440        1.07880       -2.34010
H          4.64620       -0.57540       -2.41460
H          6.94210       -1.57490       -1.76950
H          7.59180        1.10120       -3.12390
H          8.70590       -0.38450       -2.89760
