20
7878	1
C          3.01730       -1.37860        1.04520
C          3.62680       -0.06990        0.55700
C          3.26290        0.17430       -0.88280
C          4.20310        0.29480       -1.83340
C          3.83930        0.54420       -3.27280
C          4.36600       -0.58560       -4.15940
N          4.04500       -0.32240       -5.55850
H          3.27950       -1.53620        2.11280
H          3.41140       -2.23110        0.45150
H          1.91040       -1.34910        0.95210
H          4.72970       -0.11610        0.69370
H          3.23490        0.76860        1.17100
H          2.21140        0.25550       -1.14520
H          5.25460        0.21510       -1.57040
H          4.29550        1.50640       -3.58980
H          2.73660        0.62280       -3.39820
H          3.91460       -1.55440       -3.84770
H          5.47080       -0.65630       -4.05040
H          3.00600       -0.32980       -5.68020
H          4.43750       -1.09730       -6.14040
