12
7799	2
N          0.48070       -0.02810       -0.22220
N          1.72290        0.40500        0.17770
C          2.32770        1.36370       -0.43520
O          3.55480        1.78890       -0.03710
N          4.20690        1.26270        0.98650
C          5.42520        1.74190        1.32020
O          6.03650        1.26440        2.26280
H          0.02110       -0.79620        0.28630
H         -0.00130        0.40390       -1.02550
H          1.85910        1.84910       -1.28670
H          3.79850        0.48970        1.53570
H          5.86660        2.55460        0.75130
