15
7805	2
C          0.79970        0.39560        2.59610
N          2.23090        0.49960        2.44000
C          2.78150        0.44390        1.27710
N          4.18990        0.56380        1.12840
C          5.07220        0.72560        2.26770
C          6.46110        0.87150        1.81380
C          7.59250        0.98880        1.41430
H          0.53970        0.47870        3.67100
H          0.44320       -0.58470        2.21280
H          0.29520        1.21600        2.04090
H          2.16830        0.31880        0.38780
H          4.58030        0.54140        0.17360
H          4.99620       -0.16140        2.93250
H          4.78930        1.63580        2.83770
H          8.58010        1.09040        1.04770
