15
7790	1
N          3.16540        0.97750       -0.19410
N          3.99480        0.06070        0.40760
C          5.23120       -0.05370        0.06070
O          6.04530       -0.96140        0.65900
C          5.63360       -1.81580        1.66220
C          6.78430       -2.69240        2.06300
C          7.25850       -2.70250        3.31250
H          3.51120        1.59950       -0.94080
H          2.18220        1.04690        0.10310
H          5.64080        0.57970       -0.72110
H          4.81020       -2.46380        1.29110
H          5.26020       -1.22270        2.52710
H          7.24130       -3.33490        1.31620
H          6.82350       -2.07210        4.08210
H          8.09170       -3.34830        3.56970
