13
7796	1
C         -0.24300       -0.98550       -0.56890
C          0.83430       -0.46050        0.32610
N          1.97730       -0.14060       -0.16290
O          2.91930        0.37200        0.60240
C          4.06820        0.86770        0.03400
C          4.94600        1.41880        1.06770
N          5.64960        1.85810        1.87480
H         -1.08440       -0.26190       -0.57530
H         -0.60650       -1.96510       -0.19590
H          0.12710       -1.10930       -1.60990
H          0.62720       -0.31370        1.38290
H          3.80830        1.68050       -0.67730
H          4.60090        0.05810       -0.50760
