11
7789	1
F          0.75800       -0.11010       -2.40030
C          2.11400       -0.13710       -2.46840
C          2.84350       -0.04480       -1.34440
O          4.20760       -0.06410       -1.34030
C          4.99710       -0.16150       -2.47010
C          6.41080       -0.15720       -2.09340
N          7.53260       -0.15490       -1.80940
H          2.58260       -0.23410       -3.44120
H          2.32460        0.04960       -0.39530
H          4.80700        0.70440       -3.13970
H          4.78040       -1.11070       -3.00460
