16
7817	1
C          1.02710       -0.04320        0.09180
C          2.48980       -0.04600        0.07700
C          3.69530       -0.04720        0.06580
C          5.16430       -0.04790        0.05340
C          5.74010        1.27400        0.57630
C          5.38460        1.53220        2.04200
F          5.95930        2.71980        2.45590
H          0.65220       -1.04720       -0.19500
H          0.65140        0.71160       -0.62930
H          0.66810        0.20840        1.11090
H          5.50090       -0.19940       -0.99390
H          5.53680       -0.89640        0.66580
H          5.37210        2.11640       -0.04990
H          6.84740        1.23290        0.48720
H          5.76860        0.70720        2.67900
H          4.28440        1.60690        2.17170
