16
7885	1
O          2.62740        0.86040       -1.01600
C          2.25920       -0.07400       -0.03890
C          2.84180        0.32490        1.31660
C          4.34790        0.36590        1.26880
C          5.09520       -0.42190        2.06070
C          6.59990       -0.40160        2.03520
F          7.10220        0.50640        1.11830
H          2.22010        0.54560       -1.86440
H          2.63480       -1.08510       -0.31540
H          1.15020       -0.09980        0.05040
H          2.48790       -0.40380        2.07890
H          2.46370        1.33020        1.60080
H          4.82220        1.05410        0.57540
H          4.61030       -1.10600        2.75130
H          6.97080       -1.41420        1.77350
H          6.97510       -0.13320        3.04450
