15
7844	2
C          0.59050        0.09330       -0.57540
C          1.99870       -0.14850       -0.11860
C          2.77520        0.84860        0.32080
N          4.10190        0.57520        0.74370
C          4.88010        1.50380        1.17840
N          6.19960        1.19320        1.59220
O          6.65910       -0.06500        1.52530
H         -0.10420       -0.50410        0.05070
H          0.48970       -0.22630       -1.63330
H          0.30500        1.16460       -0.49940
H          2.38980       -1.16160       -0.14840
H          2.39020        1.86590        0.35390
H          4.53560        2.53410        1.23410
H          6.81720        1.94430        1.93320
H          6.48650       -0.44750        2.42350
