13
7811	1
N          0.82640       -0.89270       -2.26040
N          2.11620       -1.28890       -2.00330
C          2.83610       -0.70120       -1.10970
O          4.13660       -1.04770       -0.92930
C          4.79050       -1.94280       -1.75170
C          6.19560       -2.04300       -1.35990
C          7.36040       -2.11740       -1.06010
H          0.23470       -1.46340       -2.87980
H          0.48860        0.03240       -1.95470
H          2.41280        0.09070       -0.49740
H          4.74990       -1.57830       -2.80110
H          4.31570       -2.94520       -1.68780
H          8.38240       -2.18340       -0.79480
