17
7857	1
C          0.15100        0.97220        1.31360
C          1.63090        0.74850        1.41570
C          2.46380        1.72480        1.79280
O          3.79270        1.48150        1.86840
C          4.67750        2.43650        2.23700
C          5.98300        2.14880        2.28420
C          7.00120        3.17560        2.68350
H         -0.17690        0.77450        0.27200
H         -0.13350        2.01200        1.58360
H         -0.37300        0.27230        1.99690
H          2.02880       -0.23310        1.17450
H          2.07290        2.71110        2.03550
H          4.33020        3.43570        2.49240
H          6.32200        1.14940        2.02690
H          6.53440        4.15550        2.92220
H          7.72040        3.31950        1.85070
H          7.55090        2.81720        3.57840
