15
7808	1
C          2.85300       -2.18360        1.20910
C          3.36860       -0.82070        0.89460
N          4.19940       -0.23050        1.67950
N          4.74930        0.97630        1.31980
C          5.57860        1.69750        2.25050
C          5.88020        3.03020        1.71320
C          6.13160        4.12620        1.27770
H          3.11880       -2.85220        0.36340
H          1.74950       -2.15230        1.31590
H          3.30820       -2.58330        2.13970
H          3.04510       -0.33720       -0.02380
H          4.87120        1.17160        0.31300
H          6.53080        1.14610        2.39800
H          5.05880        1.80620        3.22610
H          6.32290        5.07690        0.85260
