16
7888	1
O          3.19430       -1.85960       -0.02850
C          3.54170       -0.57740       -0.46780
C          3.10600        0.42530        0.56120
C          3.98530        1.24090        1.16440
C          3.54590        2.24560        2.19680
C          3.89090        3.66420        1.75260
F          5.25740        3.79900        1.57960
H          3.44150       -2.47900       -0.76350
H          3.01130       -0.34600       -1.41770
H          4.64110       -0.52680       -0.63680
H          2.05040        0.48170        0.81280
H          5.04080        1.18300        0.91210
H          4.06130        2.02410        3.15550
H          2.44900        2.18660        2.37150
H          3.55710        4.38550        2.52800
H          3.37370        3.90410        0.79890
