13
7948	1
F          2.44630       -1.25690       -0.04850
C          2.08160        0.06670        0.12160
C          2.67350        0.92640       -0.99560
C          4.18060        0.86610       -0.98920
C          4.93470        1.96790       -0.84570
C          6.37470        1.88370       -0.85190
N          7.53090        1.82760       -0.85530
H          2.42960        0.41740        1.11660
H          0.97260        0.13100        0.09530
H          2.31210        1.97160       -0.87880
H          2.31020        0.54220       -1.97210
H          4.65620       -0.10300       -1.11340
H          4.47790        2.94470       -0.72490
