19
7904	1
C          1.03240       -0.45830        0.24400
C          2.53830       -0.21710        0.19200
C          2.91340        0.68240       -0.98880
C          4.39460        0.91670       -1.01600
N          5.08880        0.55620       -2.03780
N          6.44860        0.76070       -2.08730
C          7.19340        0.34400       -3.24700
H          0.78980       -1.11240        1.10790
H          0.68870       -0.95710       -0.68720
H          0.49110        0.50440        0.36370
H          3.05610       -1.19640        0.09370
H          2.85750        0.26160        1.14390
H          2.40200        1.66420       -0.89210
H          2.58570        0.20350       -1.93840
H          4.87250        1.39540       -0.16450
H          6.94290        1.21060       -1.30040
H          6.81200        0.87190       -4.14610
H          7.08360       -0.75160       -3.38840
H          8.26920        0.58590       -3.11440
