14
7985	1
F          2.59070       -0.52980       -1.27630
C          2.22150       -0.07000       -0.04990
C          2.78010        1.33110        0.15750
C          4.28380        1.34510        0.14860
C          5.03320        1.76110        1.17870
C          6.45310        1.74710        1.11640
C          7.65140        1.73890        1.07330
H          2.58750       -0.77320        0.70460
H          1.12820       -0.05640       -0.01820
H          2.39390        1.73570        1.10020
H          2.42870        1.98360       -0.64970
H          4.76150        0.99640       -0.76710
H          4.57510        2.11500        2.09630
H          8.71690        1.73280        1.03780
