14
7945	1
O          2.84860        1.07840        0.94570
C          2.31010        0.25720       -0.05480
C          2.80450       -1.18370        0.12230
C          4.30280       -1.29020       -0.03420
C          4.86660       -2.09470       -0.95190
C          6.30170       -2.19200       -1.06860
N          7.45170       -2.27770       -1.17080
H          2.47310        1.98490        0.79290
H          2.60080        0.63780       -1.05930
H          1.19960        0.26020        0.02780
H          2.28360       -1.83670       -0.61210
H          2.53340       -1.53180        1.14180
H          4.93210       -0.70540        0.63020
H          4.25630       -2.69430       -1.62010
