13
7970	3
C          3.83820        1.26930       -1.02520
O          4.48130        0.52190       -0.06920
N          4.33310       -0.78630       -0.03270
C          4.93500       -1.48390        0.86130
N          4.76820       -2.89310        0.89140
C          5.39460       -3.64600        1.82630
O          5.24200       -4.85710        1.84030
H          4.09210        2.34000       -0.88450
H          2.73880        1.14250       -0.92970
H          4.16340        0.95030       -2.03830
H          5.57200       -0.99270        1.59430
H          4.16160       -3.34790        0.19120
H          6.03640       -3.18200        2.57010
