15
8027	1
C          2.11020       -1.64670       -0.52900
C          3.10250       -0.63510        0.03220
C          2.87190        0.72080       -0.57910
C          3.82540        1.34850       -1.27680
O          3.57300        2.56990       -1.80910
C          4.47700        3.28020       -2.53070
O          5.59920        2.84600       -2.74630
H          2.28220       -2.63770       -0.05860
H          2.24240       -1.74570       -1.62780
H          1.06790       -1.32740       -0.31380
H          4.13470       -0.99840       -0.16720
H          2.96660       -0.55910        1.13190
H          1.90490        1.19870       -0.44630
H          4.79610        0.87710       -1.41380
H          4.19730        4.25160       -2.92300
