11
8062	1
N          2.97480       -1.82880        1.72910
C          3.34470       -1.05470        0.95150
C          3.81430       -0.07830       -0.03950
C          4.28750        1.17410        0.64710
C          5.55370        1.61170        0.54400
C          5.96880        2.82550        1.20280
N          6.31260        3.79830        1.72730
H          2.97260        0.18260       -0.71450
H          4.61320       -0.54470       -0.65250
H          3.56790        1.73620        1.23540
H          6.29180        1.06620       -0.03530
