16
7996	1
C          2.36920       -1.29000       -0.86130
C          2.96770       -0.32750        0.16100
C          3.08930        1.06190       -0.41480
C          4.27770        1.68510       -0.51250
C          4.40120        3.07800       -1.06860
C          5.28770        3.08010       -2.23690
N          5.99690        3.09140       -3.15170
H          2.26710       -2.30000       -0.40940
H          3.02710       -1.36650       -1.75290
H          1.36220       -0.94530       -1.18010
H          3.95630       -0.72020        0.48620
H          2.30360       -0.28660        1.05090
H          2.18380        1.56280       -0.74610
H          5.18140        1.18440       -0.17670
H          4.83640        3.74010       -0.29130
H          3.41470        3.49500       -1.36950
