13
8075	3
C          3.91920        1.88500       -0.60970
C          4.77480        0.99240       -0.11280
N          4.31800       -0.29920        0.25720
C          5.11460       -1.18690        0.74010
N          4.61350       -2.46620        1.09660
C          5.43360       -3.41540        1.60640
O          4.98860       -4.51130        1.90850
H          4.26740        2.87300       -0.89300
H          2.87040        1.63380       -0.73530
H          5.82130        1.26380        0.00500
H          6.17140       -0.96130        0.87650
H          3.61120       -2.67370        0.96490
H          6.49110       -3.21240        1.75100
