14
8047	2
C          3.29400        1.25580        0.34120
O          2.48900        0.15590        0.12630
C          2.96450       -1.10960       -0.00180
N          4.22790       -1.35500        0.07310
N          4.71930       -2.63550       -0.05560
C          6.11510       -2.89580        0.02850
N          6.96600       -1.95140        0.22650
H          2.65960        2.16330        0.40810
H          4.00710        1.38030       -0.50180
H          3.85430        1.14120        1.29400
H          2.25880       -1.91830       -0.16950
H          4.07680       -3.42700       -0.21560
H          6.47180       -3.91500       -0.07690
H          6.67690       -0.96850        0.33280
