15
7988	1
C          1.17470       -0.51980       -0.02310
C          2.64490       -0.35880        0.31410
O          3.34220        0.00860       -0.80960
C          4.68150        0.22720       -0.83710
C          5.49390        0.07150        0.23630
C          6.89990        0.35370        0.12080
C          8.07540        0.59290        0.01250
H          0.60530       -0.79780        0.88630
H          1.04350       -1.31010       -0.78540
H          0.76740        0.42530       -0.42870
H          3.04380       -1.32080        0.69160
H          2.76390        0.42380        1.09070
H          5.09360        0.54790       -1.78140
H          5.12950       -0.25280        1.20840
H          9.11010        0.79710       -0.05990
