11
8052	1
F          3.09960        1.58180        0.97360
C          3.03940        0.21010        0.81760
C          2.68690       -0.11430       -0.59870
N          3.48450       -0.81480       -1.32110
O          3.17540       -1.10210       -2.56990
C          4.00260       -1.83900       -3.34600
O          5.06280       -2.25980       -2.90760
H          2.26040       -0.20070        1.49270
H          4.02190       -0.22980        1.09370
H          1.74890        0.24780       -1.01150
H          3.72080       -2.05880       -4.36970
