13
8076	2
N          3.19340        1.76290       -0.47370
C          2.52230        0.71940       -0.14150
N          3.16170       -0.53940        0.03310
C          4.56170       -0.71040       -0.14820
N          5.09100       -1.87080        0.02210
C          6.48350       -2.08950       -0.14760
N          6.97800       -3.25970        0.03010
H          2.72110        2.67000       -0.59770
H          1.44920        0.79610        0.00930
H          2.58620       -1.35210        0.30010
H          5.18230        0.13790       -0.42990
H          7.14130       -1.27140       -0.42850
H          6.37710       -4.05350        0.29690
