13
8034	1
C          5.73830        1.02530       -0.66820
N          5.67890       -0.18160        0.11510
N          4.47910       -0.83690        0.27240
C          4.39200       -1.91650        0.96510
O          3.19090       -2.53020        1.09450
C          2.99890       -3.67150        1.80370
O          3.92440       -4.22390        2.38050
H          6.77800        1.41510       -0.68680
H          5.07180        1.79350       -0.22290
H          5.41280        0.81280       -1.70810
H          6.54000       -0.54570        0.55330
H          5.27810       -2.33110        1.44220
H          2.00470       -4.10090        1.85910
