17
7995	1
C          1.92320        1.31850        0.20360
C          2.68840        0.00160        0.25940
C          2.99700       -0.48480       -1.13100
C          4.26050       -0.67310       -1.54350
C          4.56880       -1.15980       -2.93160
C          5.39800       -0.14060       -3.64920
O          6.51590       -0.42440       -4.04870
H          1.68950        1.65760        1.23480
H          0.96990        1.18940       -0.35260
H          2.53600        2.09790       -0.29800
H          2.06820       -0.76180        0.77560
H          3.61820        0.15330        0.85070
H          2.16930       -0.68510       -1.80620
H          5.08830       -0.47390       -0.86780
H          3.64080       -1.33540       -3.51770
H          5.12030       -2.12180       -2.85670
H          5.00350        0.85630       -3.81890
