13
8009	1
C          1.87960        0.62930       -0.59960
O          3.12790        0.28560       -0.15730
N          3.29250       -0.76300        0.62010
C          4.46630       -1.05820        1.03950
C          4.68820       -2.24150        1.92430
C          5.27180       -1.79230        3.19000
N          5.73950       -1.43390        4.18590
H          1.95420        1.53700       -1.23270
H          1.22800        0.84050        0.27370
H          1.46040       -0.20630       -1.19750
H          5.31170       -0.44650        0.75100
H          5.39410       -2.92700        1.41890
H          3.73850       -2.78440        2.13090
