14
7998	1
O          2.01450       -1.37500        0.31620
C          2.67930       -0.14500        0.23940
C          2.95330        0.15370       -1.20870
C          4.20070        0.32850       -1.68220
C          4.45990        0.58760       -3.14360
C          5.16840        1.85870       -3.32520
N          5.73610        2.85660       -3.47310
H          1.80640       -1.52470        1.27440
H          3.62020       -0.19010        0.83350
H          2.02820        0.66000        0.64760
H          2.10330        0.21110       -1.88190
H          5.05260        0.26650       -1.01050
H          3.51860        0.61690       -3.73280
H          5.09380       -0.23090       -3.54460
