14
8003	1
C          3.20460        1.20060       -0.43070
O          2.59700        0.03670       -0.00570
C          3.17930       -1.19530       -0.01910
C          4.50400       -1.37970       -0.20680
C          5.11110       -2.75290       -0.25090
C          6.11000       -2.90500        0.81150
N          6.90040       -3.03390        1.64720
H          2.51200        2.05370       -0.28150
H          3.43840        1.11820       -1.51450
H          4.12870        1.39800        0.15060
H          2.53640       -2.05720        0.12930
H          5.16980       -0.53410       -0.33950
H          5.61260       -2.88290       -1.23230
H          4.34270       -3.54670       -0.14010
