13
8082	1
C          2.25440       -0.40090       -1.50970
N          3.46500       -0.72600       -1.22470
N          3.99930       -0.47510        0.01820
C          5.33640       -0.84710        0.29680
N          5.84000       -0.61520        1.45530
N          7.13560       -0.97200        1.73570
C          7.63810       -0.74020        2.89320
H          1.85960       -0.61080       -2.49750
H          1.61730        0.08270       -0.77450
H          3.43350       -0.01740        0.75100
H          5.93400       -1.32930       -0.47360
H          8.66270       -1.02660        3.10300
H          7.04800       -0.25910        3.66850
