12
8061	1
O          1.97970        1.23580        0.03800
C          1.74080        0.05540       -0.17120
C          2.78890       -0.87380       -0.71510
C          4.18930       -0.44870       -0.35140
C          5.00620       -1.24260        0.36210
C          6.33970       -0.81420        0.70180
N          7.41220       -0.48020        0.98010
H          0.73200       -0.31740       -0.03950
H          2.68210       -0.91570       -1.82000
H          2.57010       -1.88970       -0.32620
H          4.53360        0.52580       -0.68380
H          4.68260       -2.22270        0.70010
