14
8049	1
C          0.30710        1.40060       -0.40660
C          1.81000        1.22930       -0.59220
C          2.25950       -0.09330       -0.04690
N          2.82310       -0.95330       -0.81610
O          3.22000       -2.11620       -0.33910
C          3.81370       -3.03530       -1.13440
O          3.99810       -2.81050       -2.32130
H         -0.00760        2.38690       -0.80790
H          0.04240        1.35470        0.67160
H         -0.24140        0.60260       -0.95160
H          2.34310        2.04110       -0.05320
H          2.05240        1.30470       -1.67510
H          2.10650       -0.31860        1.00570
H          4.12950       -3.98300       -0.71290
