14
8138	1
O          2.13440        1.20960        0.90580
C          2.91880        0.44310        0.03690
C          2.77960       -1.00600        0.40440
C          3.83940       -1.74460        0.76440
C          3.68280       -3.16550        1.12120
N          4.70940       -3.85550        1.46310
O          4.58190       -5.12500        1.78370
H          2.20640        2.14690        0.58750
H          3.98000        0.77360        0.10390
H          2.55850        0.56790       -1.00800
H          1.79020       -1.45540        0.37310
H          4.83030       -1.29910        0.79660
H          2.69910       -3.62940        1.09500
H          5.35900       -5.63910        2.04030
