12
8167	2
O          0.61710        0.65210        0.83930
N          1.89130        0.39170        0.64170
C          2.79560        1.11470        1.19530
C          4.21920        0.81220        0.96580
C          5.17920        1.55390        1.53370
C          6.60230        1.25180        1.30440
O          7.46340        1.93800        1.82980
H         -0.05910        0.10390        0.41950
H          2.51100        1.94910        1.83280
H          4.48520       -0.02560        0.32570
H          4.91440        2.39180        2.17390
H          6.89450        0.42070        0.66950
