15
8169	1
C          0.62790        0.31950        0.17550
C          2.07030        0.26450       -0.23300
C          3.05800        0.42730        0.65870
C          4.46950        0.37030        0.24050
N          5.40030        0.52860        1.11040
N          6.72000        0.47810        0.73570
C          7.64970        0.63610        1.60570
H          0.14020       -0.64520       -0.07520
H          0.12170        1.13590       -0.38010
H          0.50920        0.50470        1.26480
H          2.30530        0.08790       -1.27930
H          2.82480        0.60400        1.70560
H          4.72160        0.19440       -0.80340
H          8.68860        0.59410        1.29790
H          7.40840        0.81200        2.65050
