15
8141	2
C          0.76760       -0.06300        0.67810
N          2.20580       -0.14740        0.75830
C          2.91190        0.81930        1.22890
C          4.37820        0.69100        1.29260
C          5.13500        1.68370        1.77840
N          6.54680        1.55570        1.83770
O          7.28910        2.55450        2.33470
H          0.37080       -1.00350        0.24380
H          0.47010        0.78690        0.02690
H          0.33540        0.07460        1.69250
H          2.43130        1.73090        1.57990
H          4.84590       -0.22420        0.93900
H          4.66980        2.60010        2.13260
H          7.00960        0.69250        1.51420
H          7.55680        3.09020        1.54460
