16
8147	1
C          1.26830       -0.23060        0.00940
O          2.63760       -0.14120       -0.04890
N          3.21680        0.95050       -0.50430
C          4.49630        1.03300       -0.55790
C          5.13140        2.26000       -1.06950
C          6.46620        2.36700       -1.13380
C          7.12940        3.60880       -1.65180
H          0.98360       -1.22150        0.41890
H          0.83750       -0.12230       -1.00860
H          0.86420        0.56430        0.67160
H          5.11010        0.19840       -0.22610
H          4.50120        3.08320       -1.39640
H          7.09460        1.54290       -0.80650
H          6.39040        4.38100       -1.95620
H          7.75390        3.34950       -2.53170
H          7.77960        4.03350       -0.85920
