13
8104	2
N          0.97530        0.08140        0.02190
C          2.25810        0.07520        0.01280
N          2.97860        0.76500        1.02100
C          4.39980        0.76480        1.02060
C          5.08150        1.41550        1.97170
C          6.48750        1.41550        1.97170
C          7.67760        1.41550        1.97170
H          0.44560       -0.41760       -0.70740
H          2.78940       -0.46050       -0.77010
H          2.46190        1.26950        1.75830
H          4.93720        0.23020        0.23940
H          4.55520        1.95180        2.75540
H          8.73590        1.41540        1.97160
