15
8184	1
C          0.97980       -0.04640       -0.05050
C          2.44250       -0.07330       -0.04870
C          3.64780       -0.09610       -0.04750
C          5.08850       -0.12350       -0.04560
C          5.75420       -0.85380       -0.94920
C          7.25650       -0.89870       -0.96700
O          7.69770       -2.21860       -0.80970
H          0.62800        0.91910       -0.46880
H          0.60640       -0.15710        0.98830
H          0.59520       -0.88070       -0.67240
H          5.62380        0.45670        0.69990
H          5.20730       -1.43100       -1.69090
H          7.71260       -0.24780       -0.18570
H          7.61150       -0.52180       -1.94850
H          7.59530       -2.43880        0.15320
