12
8180	1
O          0.95810       -0.36140       -0.19040
N          2.27350       -0.36180       -0.17190
C          2.90760       -0.38360        0.94370
C          4.38090       -0.38370        0.95040
C          5.06140       -0.40630        2.10300
C          6.46740       -0.40630        2.10300
C          7.65760       -0.40630        2.10300
H          0.48660       -0.34490       -1.03390
H          2.35770       -0.40200        1.88230
H          4.91430       -0.36520        0.00220
H          4.53630       -0.42490        3.05370
H          8.71590       -0.40630        2.10280
