15
8158	1
C          3.21020        1.34510       -0.29220
O          2.41430        0.25700        0.00200
C          2.89720       -0.92390        0.46720
N          4.15740       -1.09510        0.66370
N          4.63250       -2.29390        1.13420
C          5.89040       -2.46390        1.33020
C          6.40390       -3.77100        1.84280
H          2.57050        2.17680       -0.65230
H          3.93810        1.08370       -1.09010
H          3.75330        1.68070        0.61730
H          2.20000       -1.73120        0.67390
H          6.59280       -1.65980        1.12550
H          5.57270       -4.49070        2.00400
H          6.93030       -3.60730        2.80590
H          7.11480       -4.20090        1.10710
