14
8157	1
C          0.54740        0.12260        0.36190
C          1.98300        0.26860       -0.02840
N          2.91320        0.05620        0.83150
N          4.23260        0.18920        0.47700
C          5.16280       -0.02350        1.33680
C          6.59860        0.12300        0.94640
F          7.25130       -1.08030        1.13560
H          0.07100       -0.65390       -0.27180
H          0.02440        1.08930        0.20910
H          0.45200       -0.17420        1.42860
H          2.23080        0.55620       -1.04710
H          4.91470       -0.31120        2.35550
H          7.07360        0.90010        1.58030
H          6.69240        0.42270       -0.11960
