14
8117	1
C          2.03120        0.45430       -0.91480
O          3.26290        0.22050       -0.37830
N          3.39320        0.06840        0.92160
C          4.55460       -0.14080        1.40920
C          4.75930       -0.33830        2.87210
C          5.68370        0.68200        3.38190
C          6.44780        1.51650        3.80270
H          2.10120        0.54530       -2.01850
H          1.63690        1.39620       -0.48890
H          1.36880       -0.39280       -0.65410
H          5.40360       -0.18710        0.74350
H          5.20100       -1.34650        3.01680
H          3.80330       -0.28570        3.43460
H          7.11640        2.23920        4.19500
