12
8224	1
O          0.90970        0.07610        0.03830
C          2.30930        0.04370        0.05150
C          2.84810        1.36590       -0.48790
C          4.29210        1.36590       -0.48790
C          5.48230        1.36590       -0.48790
C          6.89390        1.35680       -0.52190
N          8.04870        1.29990       -0.56360
H          0.61080       -0.80010        0.39580
H          2.66940       -0.78990       -0.59370
H          2.66940       -0.10070        1.09570
H          2.48890        2.20470        0.14560
H          2.48890        1.52210       -1.52740
