13
8190	1
C          0.88450        0.03220       -0.05510
C          2.34740        0.02670       -0.06710
C          3.55300        0.02210       -0.07700
C          4.99390        0.01600       -0.09010
C          5.68390        0.55020        0.92430
C          7.15670        0.54840        0.91950
O          7.76980        1.03990        1.85280
H          0.52010        1.06040        0.14720
H          0.51840       -0.65230        0.73750
H          0.50520       -0.30710       -1.04090
H          5.51030       -0.42880       -0.93580
H          5.15840        0.99340        1.76710
H          7.70510        0.11220        0.09000
