14
8225	1
F          1.01200        0.03500        0.00440
C          2.39460        0.01760       -0.01290
C          2.93110        1.02970        0.99330
C          4.37510        1.02970        0.99330
C          5.56530        1.02970        0.99330
C          6.97130        1.02970        0.99330
C          7.65240        0.26450        0.13840
H          2.74320        0.27050       -1.03750
H          2.74320       -1.00550        0.24610
H          2.56990        0.77230        2.01140
H          2.57000        2.04630        0.72990
H          7.50420        1.66020        1.69770
H          7.13660       -0.37350       -0.57440
H          8.73750        0.27420        0.14920
