14
8281	1
C          0.93280       -0.00990       -0.11840
C          2.45280       -0.00250       -0.07400
C          2.93410        0.22450        1.26840
C          3.33080        0.41150        2.37480
C          3.81950        0.60600        3.70950
N          3.60510        1.79610        4.14900
O          4.11250        1.89450        5.45140
H          0.58140       -0.18260       -1.14040
H          0.52230        0.94600        0.22590
H          0.52220       -0.79940        0.52090
H          2.82790        0.77630       -0.74740
H          2.82780       -0.95930       -0.45400
H          4.31720       -0.21170        4.25250
H          3.90250        2.81810        5.68660
