17
8218	1
C          1.01450        0.07350       -0.06930
C          2.54030        0.06320       -0.05860
C          3.07690       -0.93360        0.97200
C          4.52090       -0.93360        0.97200
C          5.71110       -0.93360        0.97200
C          7.11710       -0.93360        0.97200
C          7.79840       -2.07680        0.87680
H          0.65230        0.80330       -0.82380
H          0.62340        0.36900        0.92760
H          0.62340       -0.93270       -0.33140
H          2.90370        1.08630        0.18410
H          2.90370       -0.21350       -1.07310
H          2.72140       -1.95840        0.73170
H          2.72130       -0.65930        1.98820
H          7.64990        0.00860        1.05040
H          7.28300       -3.03030        0.79730
H          8.88350       -2.06200        0.87800
