15
8219	1
C          0.88790       -0.04000       -0.06460
C          2.41460       -0.03920       -0.06620
C          2.96190        0.06860       -1.49190
C          4.40590        0.06860       -1.49190
C          5.59600        0.06860       -1.49190
C          7.03380        0.04410       -1.49770
O          7.66110        1.05830       -1.75310
H          0.51570       -0.11880        0.97850
H          0.50090       -0.90430       -0.64570
H          0.49990        0.90110       -0.50970
H          2.77360       -0.98120        0.40380
H          2.77290        0.82200        0.53980
H          2.60810        1.00990       -1.96430
H          2.60830       -0.79120       -2.10030
H          7.55880       -0.85410       -1.19170
