13
8253	1
C          0.93310       -0.11880       -0.00220
C          2.26700       -0.09590        0.01340
C          2.97660        0.67490        0.98910
C          3.57770        1.31910        1.80440
C          4.26980        2.11220        2.81050
C          3.36590        2.59770        3.86700
O          3.68820        2.49420        5.03860
H          0.41450       -0.71860       -0.73970
H          0.34880        0.45190        0.71560
H          2.83740       -0.67060       -0.70510
H          4.73220        2.97550        2.27100
H          5.19450        1.58960        3.12510
H          2.43080        3.06060        3.58960
