16
8356	1
N          1.01990        0.15280       -0.15360
C          2.44710       -0.11950       -0.01660
C          2.90420       -1.12440       -1.08510
N          4.31610       -1.52190       -1.00840
C          3.86480       -2.89840       -1.24550
C          2.42250       -2.55460       -0.91580
F          1.48840       -2.97900       -1.84440
H          0.74950        0.87350        0.55370
H          0.47910       -0.71710        0.05590
H          2.66410       -0.50170        1.00570
H          3.00910        0.82840       -0.16340
H          2.70870       -0.75220       -2.11940
H          4.62800       -1.47760       -0.00850
H          4.33250       -3.66960       -0.59470
H          3.98700       -3.11900       -2.33220
H          2.21170       -2.79830        0.14950
