19
8327	1
C          1.13820        0.27940       -0.66160
O          2.12490       -0.09710        0.26980
C          2.83290       -1.21480       -0.22200
C          3.89330       -1.72160        0.76320
C          3.51000       -3.14520        0.36120
C          2.15200       -2.58320       -0.06160
C          1.50930       -3.20780       -1.29790
H          0.70420        1.24660       -0.33500
H          0.30930       -0.45910       -0.68290
H          1.56480        0.45050       -1.67570
H          3.31780       -1.08020       -1.22030
H          3.53570       -1.55270        1.80750
H          4.94660       -1.39320        0.63550
H          3.54370       -3.94710        1.12880
H          4.10130       -3.41560       -0.54590
H          1.47160       -2.56690        0.82350
H          2.21940       -3.20950       -2.15200
H          0.60390       -2.63710       -1.58750
H          1.21390       -4.25390       -1.07310
