16
8321	1
O          3.00960       -1.12270       -0.56850
C          2.45850        0.00210        0.05620
C          2.90810        0.04010        1.51560
C          2.26930        1.09200        2.42460
C          2.32950        0.05140        3.54630
C          2.35290       -1.02730        2.46040
F          3.18740       -2.10330        2.70560
H          2.70600       -1.08880       -1.51270
H          1.34750       -0.04520        0.00640
H          2.81910        0.92700       -0.44580
H          4.01830        0.09550        1.62520
H          1.19910        1.23080        2.13970
H          2.78760        2.06380        2.56680
H          1.51810        0.03270        4.30430
H          3.33790        0.10800        4.02150
H          1.30980       -1.30850        2.18400
