16
8368	1
N          3.18920        0.15020       -1.13970
C          2.45380       -0.10640        0.09470
C          3.19540       -1.13150        0.96120
O          2.45900       -1.47430        2.11240
C          2.47160       -2.83930        1.75530
C          3.15750       -2.55410        0.43380
O          4.42120       -3.15670        0.28260
H          2.67770        0.88240       -1.68330
H          3.20690       -0.71850       -1.72150
H          1.42490       -0.46100       -0.14010
H          2.37260        0.84240        0.66780
H          4.21500       -0.79730        1.26090
H          1.43830       -3.22840        1.62470
H          3.09900       -3.40820        2.47700
H          2.46330       -2.71520       -0.42030
H          4.94300       -3.02800        1.11770
