18
8313	1
N          1.00840       -0.21520        0.23680
C          2.46540       -0.14170        0.15030
C          3.13080        1.00260        0.92600
C          4.24840        0.01550        1.28260
C          3.23510       -1.11040        1.05400
C          3.75160       -2.40730        0.42850
O          2.68610       -3.27700        0.16110
H          0.60690        0.60030       -0.27930
H          0.69690       -0.15520        1.23340
H          2.85170       -0.17300       -0.89630
H          2.55120        1.21500        1.85580
H          3.39400        1.93500        0.38350
H          4.74230        0.09960        2.27380
H          4.99200        0.02120        0.45000
H          2.67640       -1.28250        2.00530
H          4.43890       -2.90400        1.14480
H          4.33310       -2.20820       -0.50060
H          2.24760       -2.94460       -0.66520
