17
8349	1
N          0.94400       -0.10680        0.44040
C          2.37800       -0.16050        0.16120
C          3.21420        0.94620        0.78730
N          4.15470       -0.01950        1.36910
C          3.18290       -1.07590        1.07270
C          3.80930       -2.29270        0.38720
O          2.81990       -3.22490        0.04620
H          0.53570        0.69510       -0.09140
H          0.76810        0.05320        1.45910
H          2.64600       -0.28770       -0.91210
H          2.67200        1.48030        1.60440
H          3.68560        1.62900        0.04860
H          4.22640        0.12390        2.40450
H          2.62700       -1.34740        2.00330
H          4.51580       -2.77780        1.09300
H          4.39750       -1.99890       -0.51230
H          2.37390       -2.88310       -0.77200
