17
8346	1
C          0.85360        0.06140        0.17660
C          2.37420        0.02580        0.04810
C          3.16250        1.06930        0.82100
N          4.07050        0.05280        1.36940
C          3.12050       -0.97000        0.92110
C          3.78650       -2.12320        0.17310
F          2.81850       -2.96330       -0.34580
H          0.45760        0.95290       -0.35300
H          0.54390        0.10830        1.24250
H          0.42280       -0.85220       -0.28360
H          2.75240       -0.00510       -0.99880
H          2.56560        1.52230        1.64910
H          3.67160        1.82090        0.18010
H          4.07870        0.10210        2.41600
H          2.50330       -1.31780        1.78530
H          4.42510       -2.69870        0.87550
H          4.42240       -1.74260       -0.65460
