18
8348	1
N          3.20000        0.37070       -1.09390
C          2.31550       -0.06020       -0.01630
C          2.92970       -1.24770        0.74190
N          2.07570       -1.81800        1.79430
C          2.44540       -3.14620        1.28600
C          2.99130       -2.56950       -0.01140
N          4.32750       -3.03140       -0.38590
H          2.78260        1.21450       -1.54770
H          3.25090       -0.38090       -1.81830
H          1.31810       -0.32740       -0.43140
H          2.18370        0.77990        0.69920
H          3.91080       -0.98410        1.20330
H          1.07020       -1.66960        1.53660
H          1.59700       -3.85580        1.16570
H          3.25230       -3.54860        1.94140
H          2.22290       -2.63650       -0.81390
H          4.99150       -2.94100        0.41690
H          4.67740       -2.42880       -1.16420
