17
8378	1
C          0.93590        0.00890        0.21680
N          2.39900       -0.00690        0.07050
C          3.07360        1.04790        0.84430
C          4.04620        0.04900        1.45340
C          3.06180       -0.99090        0.93760
C          3.68350       -2.15530        0.16920
F          2.68290       -2.94180       -0.37110
H          0.52210        0.89010       -0.31700
H          0.61370        0.05280        1.28140
H          0.51010       -0.90610       -0.24630
H          2.41070        1.46700        1.63920
H          3.55220        1.83110        0.21820
H          4.21990        0.10090        2.54910
H          4.96650        0.04730        0.82710
H          2.39630       -1.33280        1.76750
H          4.29360       -2.77310        0.86090
H          4.33270       -1.78350       -0.65200
