17
8367	1
C          3.08250       -1.25840        0.02310
C          2.58400        0.18300       -0.04060
C          3.13650        0.91510       -1.27160
O          2.76880        2.27520       -1.27370
C          4.12110        2.67700       -1.29550
C          4.61640        1.24730       -1.20090
O          5.36410        0.81230       -2.31260
H          2.64930       -1.76230        0.91260
H          4.18940       -1.28690        0.10540
H          2.77100       -1.81340       -0.88740
H          2.87770        0.71810        0.88900
H          1.47450        0.17270       -0.10120
H          2.83280        0.44740       -2.23610
H          4.37030        3.27460       -0.39130
H          4.35240        3.17310       -2.26430
H          5.09570        1.04870       -0.21720
H          4.89850        1.08920       -3.14500
