15
8369	1
O          1.17380        0.19520        0.07100
C          2.52720       -0.14880        0.17040
C          2.83010       -1.30400       -0.78700
O          4.14260       -1.78470       -0.61220
C          3.66360       -3.05480       -0.22740
C          2.21510       -2.62940       -0.37580
O          1.52930       -3.28630       -1.41700
H          1.03720        0.95560        0.69390
H          2.76700       -0.45060        1.21520
H          3.15770        0.72050       -0.12060
H          2.65070       -1.04600       -1.85540
H          3.93730       -3.26220        0.83070
H          3.98550       -3.83150       -0.95580
H          1.67280       -2.62680        0.59530
H          2.10340       -3.30260       -2.22760
