17
8317	1
O          2.86670       -0.72310        1.09490
C          2.41900        0.13930        0.08750
C          3.03750        1.52100        0.29210
C          2.53330        2.65500       -0.60210
C          2.69700        3.58100        0.60540
C          2.56330        2.34230        1.49740
O          3.42200        2.34100        2.60310
H          2.45280       -1.60490        0.90570
H          1.30910        0.21600        0.12240
H          2.73920       -0.24430       -0.90640
H          4.15400        1.50600        0.25840
H          1.44090        2.52430       -0.79030
H          3.08710        2.88860       -1.53600
H          1.97990        4.41840        0.73910
H          3.75500        3.93750        0.62630
H          1.48860        2.16740        1.74230
H          3.42020        1.40990        2.94450
