13
8404	1
F          0.89580       -0.00600        0.30090
C          2.25440       -0.08410        0.05050
C          3.09440        0.88800        0.86100
N          3.95190       -0.18220        1.37960
C          2.98270       -1.14590        0.85670
C          3.62500       -2.23120        0.04290
O          4.36100       -3.04240        0.58160
H          2.56670       -0.05880       -1.01720
H          2.50760        1.34450        1.69330
H          3.64800        1.62670        0.24270
H          3.92740       -0.18580        2.42660
H          2.34560       -1.54340        1.68350
H          3.43590       -2.30790       -1.02300
