13
8479	1
N          1.07910       -0.52310       -0.19700
C          2.12270        0.04480        0.28840
N          3.01550       -0.67910        1.12110
C          4.22520       -0.30460        1.78170
C          4.28120       -1.82880        2.34410
C          3.02750       -1.90170        1.55080
O          2.21790       -2.78850        1.32830
H          0.43170        0.00330       -0.80130
H          2.32700        1.08730        0.06210
H          4.02290        0.46960        2.55400
H          5.01280       -0.05360        1.03760
H          4.04690       -1.96180        3.42150
H          5.04770       -2.49080        1.88850
