12
8435	1
F          0.77150       -0.03680        0.07490
C          2.14690       -0.08310       -0.00470
C          2.92540        0.88520        0.86600
O          3.79990       -0.14520        1.27820
C          2.86540       -1.10810        0.85550
C          3.45930       -2.24760        0.14960
C          3.95580       -3.18730       -0.41740
H          2.50990       -0.05120       -1.05240
H          2.35560        1.26290        1.75810
H          3.40100        1.73360        0.34640
H          2.26530       -1.45200        1.73400
H          4.34700       -4.04470       -0.89430
