12
8412	1
O          0.83420        0.05740        0.16310
C          2.22540        0.02340        0.02090
C          2.97800        1.00510        0.88880
O          3.76370       -0.02340        1.44990
C          2.89640       -0.99610        0.91420
C          3.60010       -2.05010        0.17200
N          4.14700       -2.88250       -0.42080
H          0.52660        0.79740       -0.42120
H          2.62030        0.00470       -1.02220
H          2.34860        1.44330        1.69880
H          3.56170        1.74780        0.30340
H          2.24760       -1.38340        1.73350
