13
8481	1
C          3.05300       -0.92320       -0.19850
N          2.51100        0.18800        0.16160
N          3.10440        1.41940       -0.03930
C          2.64600        2.72670        0.29420
C          4.03670        3.26800       -0.36180
C          4.22320        1.80680       -0.57080
O          5.11130        1.13470       -1.07010
H          2.53230       -1.85540       -0.01050
H          4.01780       -0.96030       -0.68630
H          2.57390        2.84210        1.39780
H          1.72900        2.97480       -0.28380
H          4.80010        3.64250        0.35260
H          3.94710        3.77650       -1.34510
