14
8462	1
C          2.29310        0.60470        0.25130
O          3.51340        0.29330       -0.37290
N          3.21240       -0.19740       -1.58960
C          2.99860        0.42090       -2.85670
C          2.81720       -1.09240       -3.43900
C          3.08740       -1.41120       -2.01060
O          3.18910       -2.44490       -1.36960
H          2.50630        0.97690        1.27430
H          1.65280       -0.29960        0.35560
H          1.76270        1.41580       -0.29460
H          3.92300        0.93980       -3.19200
H          2.07130        1.03400       -2.84180
H          3.64770       -1.47120       -4.07160
H          1.78150       -1.39950       -3.69640
