14
8395	1
C          1.09070       -0.01100        0.17100
C          2.60500       -0.14810        0.02980
O          3.32530        0.88260        0.66460
C          4.13570       -0.07000        1.32070
C          3.22480       -1.20800        0.91390
C          3.86840       -2.32260        0.20550
N          4.36990       -3.20270       -0.35380
H          0.74540        0.88320       -0.38880
H          0.79610        0.09730        1.23650
H          0.59810       -0.91110       -0.25400
H          2.93740       -0.20850       -1.03350
H          4.18130        0.07890        2.42150
H          5.12990       -0.08930        0.81560
H          2.56770       -1.48890        1.76700
