15
8403	1
F          0.92810        0.15440        0.30290
C          2.29340        0.02590        0.11740
C          3.13150        0.95610        0.97660
N          3.93310       -0.15120        1.50700
C          2.94320       -1.07060        0.94360
C          3.56270       -2.18750        0.14770
C          4.29960       -3.12540        0.74740
H          2.65760        0.05090       -0.93380
H          2.52720        1.41460        1.79560
H          3.73030        1.69050        0.39680
H          3.87880       -0.16560        2.55310
H          2.25550       -1.43810        1.74390
H          3.40770       -2.24110       -0.92590
H          4.46750       -3.09710        1.82000
H          4.73780       -3.92800        0.16280
