15
8438	1
O          3.15420       -1.00680       -0.11600
C          2.44680        0.16140        0.19340
C          2.80790        1.25800       -0.81180
C          2.34790        2.69530       -0.41820
C          3.82550        3.16910       -0.24260
C          4.14690        1.79850       -0.62170
O          5.23490        1.25990       -0.75180
H          2.85980       -1.68890        0.54190
H          2.69470        0.48960        1.22890
H          1.35400       -0.03170        0.11510
H          2.63190        0.98860       -1.87610
H          1.79270        2.73630        0.54550
H          1.85270        3.21250       -1.26970
H          4.14830        3.35170        0.80460
H          4.19530        3.87560       -1.01590
