12
8483	1
O          1.20880        0.05270        0.55520
C          2.36030       -0.07310        0.17000
N          3.15400        0.85520       -0.27010
C          4.24560       -0.04630       -0.49890
C          3.29960       -1.21660        0.09610
C          2.92720       -2.26370       -0.86400
C          2.67850       -3.14840       -1.64540
H          3.02210        1.86820       -0.40600
H          5.12360        0.19770        0.13700
H          4.44560       -0.09260       -1.59350
H          3.52910       -1.57320        1.12100
H          2.46510       -3.92310       -2.33520
