14
8452	1
C          1.24720        0.38880       -0.53990
N          2.40440       -0.06490        0.23160
C          3.01450       -1.25510       -0.37910
C          4.12080       -1.95290        0.53810
O          3.27580       -3.03470        0.72410
C          2.33870       -2.50610       -0.01380
O          1.24230       -2.97040       -0.28220
H          0.83340        1.30810       -0.07460
H          0.45090       -0.38620       -0.55520
H          1.54910        0.63550       -1.58050
H          2.10630       -0.25660        1.21780
H          3.24070       -1.18470       -1.46560
H          4.31330       -1.43880        1.50640
H          5.03280       -2.26350       -0.01870
