14
8430	1
O          0.93610        0.08380        0.17560
C          2.33290        0.05860        0.08390
C          3.08170        1.05380        0.96090
N          4.06650        0.02410        1.31700
C          3.05160       -0.96900        0.95180
C          3.61420       -2.12830        0.25150
C          4.09040       -3.08850       -0.29950
H          0.64540        0.78980       -0.46190
H          2.74500        0.06430       -0.95340
H          2.49310        1.32090        1.87760
H          3.48720        1.95280        0.45260
H          4.32140        0.00480        2.33000
H          2.45980       -1.25570        1.85750
H          4.50710       -3.93080       -0.78550
