16
8409	1
N          0.78800        0.29780        0.05420
C          2.22980        0.07030       -0.05660
C          3.06560        0.92040        0.88100
O          3.56610       -0.20990        1.56040
C          2.73940       -1.06660        0.80810
C          3.53470       -2.10480        0.06020
C          4.20720       -3.05240        0.71750
H          0.56560        1.22070       -0.38280
H          0.48370        0.32910        1.05490
H          2.62880        0.08560       -1.09550
H          2.46680        1.54280        1.58320
H          3.88040        1.46240        0.35260
H          1.95520       -1.50700        1.46600
H          3.56220       -2.09370       -1.02570
H          4.19660       -3.08950        1.80260
H          4.77440       -3.79620        0.16730
