12
8414	1
F          0.69430        0.01140        0.82160
C          1.92720       -0.12900        0.20600
C          2.89840        0.91490        0.71010
O          3.59710       -0.02100        1.49890
C          2.81410       -1.07200        0.98700
C          3.63720       -1.97900        0.11600
O          3.09960       -2.87250       -0.51800
H          1.89810       -0.24410       -0.89970
H          2.41720        1.70510        1.32730
H          3.57060        1.28880       -0.09440
H          2.27290       -1.61550        1.79320
H          4.71280       -1.84810        0.05240
