15
8448	1
C          2.45090       -1.55550        0.46460
C          2.44640       -0.11490       -0.03970
C          3.10040        0.83780        0.96900
C          2.83090        2.39020        0.71250
O          2.06770        2.43820        1.86850
C          2.25290        1.16970        2.11590
O          1.84110        0.52110        3.06440
H          1.99420       -2.21800       -0.30050
H          1.86370       -1.64380        1.40250
H          3.49210       -1.89410        0.65240
H          1.39960        0.19650       -0.25220
H          3.02270       -0.06990       -0.98830
H          4.13280        0.58040        1.29020
H          2.19830        2.61410       -0.17580
H          3.73850        3.02560        0.81540
