15
8525	1
O          1.31770        0.38350       -0.33730
C          2.64150        0.00260       -0.09290
C          2.94890        0.20800        1.38760
O          4.33860        0.14730        1.62670
C          3.72850        1.41140        1.76140
C          3.66940        1.84760        3.22480
O          4.91860        2.33090        3.63430
H          1.14400        0.17850       -1.29270
H          3.32810        0.60200       -0.73320
H          2.77120       -1.07790       -0.32380
H          2.40420       -0.36890        2.16520
H          4.08600        2.10570        0.97140
H          3.32920        1.03180        3.90400
H          2.92940        2.66950        3.31560
H          5.48810        1.53570        3.80460
