14
8586	1
F          2.79650        1.26130        0.11320
C          2.27870        0.01930       -0.07900
C          2.79320       -0.87330        0.99480
C          2.87060       -2.36240        0.78440
C          4.13740       -1.54390        0.84690
C          4.97480       -1.67060        2.00380
C          5.67770       -1.77220        2.97160
H          2.56560       -0.31500       -1.08050
H          1.18880        0.09650       -0.03070
H          2.50470       -0.51150        1.97510
H          2.58660       -2.77290       -0.17790
H          2.62410       -3.00440        1.62330
H          4.66730       -1.39310       -0.08980
H          6.30090       -1.86160        3.83080
