18
8492	1
N          2.62260        1.15550        0.00150
C          2.03280       -0.14510       -0.28940
C          2.85420       -1.24670        0.38850
C          2.47870       -2.64040       -0.12480
C          3.83610       -2.01820       -0.46630
C          5.05830       -2.50470        0.32010
O          5.71170       -3.51750       -0.39210
H          2.03060        1.89550       -0.44050
H          3.57220        1.20410       -0.43500
H          1.97110       -0.28740       -1.39240
H          1.00010       -0.17440        0.11990
H          2.92190       -1.28010        1.49760
H          1.96430       -2.76670       -1.10160
H          2.66010       -3.51460        0.53640
H          3.96370       -1.56490       -1.47360
H          4.80520       -2.86010        1.34560
H          5.76070       -1.65430        0.44190
H          5.16750       -4.33990       -0.27660
