18
8490	1
C          2.36720       -0.40410        1.62420
C          1.77250       -0.83590        0.28970
C          2.86280       -1.43870       -0.60650
C          3.04140       -2.96120       -0.59180
C          2.29880       -2.26950       -1.73890
C          3.09000       -2.31900       -3.04640
F          2.52970       -1.43550       -3.94900
H          1.57480        0.04870        2.25670
H          3.16880        0.34840        1.46390
H          2.79160       -1.28160        2.15710
H          1.34180        0.05210       -0.22040
H          0.94920       -1.55940        0.48160
H          3.72230       -0.81460       -0.93660
H          2.44930       -3.36540        0.25670
H          4.13960       -3.12300       -0.64180
H          1.23520       -2.59200       -1.72650
H          3.03540       -3.34460       -3.46770
H          4.16010       -2.05350       -2.90430
