11
8567	1
F          3.26890       -0.41160        0.91660
C          2.31770        0.09310        0.05060
C          2.97750        1.10170       -0.88220
O          2.13680        2.16920       -1.22250
C          3.18800        2.45180       -0.31230
C          4.19560        3.28460       -0.97770
N          4.99480        3.93820       -1.50080
H          1.49330        0.54750        0.64330
H          1.89970       -0.73800       -0.55400
H          3.67020        0.78910       -1.69240
H          2.76470        2.73890        0.67290
