16
8521	1
C          1.79560        0.58120       -0.45260
C          2.10450       -0.71860        0.27940
C          3.18630       -1.50140       -0.46610
O          3.24940       -2.83540       -0.01170
C          2.74200       -2.63400       -1.31230
C          3.72000       -3.14130       -2.36650
F          3.35640       -2.64240       -3.60270
H          1.02190        1.14910        0.10590
H          1.41320        0.36500       -1.47310
H          2.71040        1.20700       -0.53050
H          1.16770       -1.31120        0.37490
H          2.47220       -0.48420        1.30110
H          4.21090       -1.08770       -0.58230
H          1.66710       -2.91110       -1.35320
H          3.67800       -4.24990       -2.39850
H          4.76580       -2.83480       -2.14740
