17
8531	1
C          1.27640        0.67790        0.20440
C          1.75420       -0.71570       -0.18160
N          2.83670       -0.60870       -1.17890
C          3.01520       -1.87780       -1.94150
C          2.33670       -0.73500       -2.56160
C          3.16340        0.09210       -3.54210
F          3.00140       -0.41400       -4.81770
H          0.48880        0.60230        0.98350
H          0.85500        1.19620       -0.68300
H          2.12280        1.27440        0.60640
H          0.87650       -1.30910       -0.53020
H          2.15670       -1.21410        0.72630
H          2.39500       -2.70620       -1.53240
H          4.10000       -2.01750       -2.13380
H          1.22980       -0.77790       -2.66710
H          4.24530        0.08870       -3.28610
H          2.80310        1.14150       -3.52220
