19
8505	1
C          0.90000       -0.22570       -0.21850
N          2.32200       -0.49540       -0.41770
C          2.80730       -1.37210        0.64650
C          2.86460       -2.85100        0.29970
C          4.12780       -1.99660        0.22290
N          5.01940       -2.37300        1.31950
C          6.19060       -1.50010        1.31510
H          0.53790        0.45110       -1.02070
H          0.72270        0.26210        0.76530
H          0.31790       -1.17090       -0.27640
H          2.84360        0.41060       -0.36240
H          2.93280       -0.95100        1.66920
H          2.25400       -2.99010       -0.61860
H          2.58330       -3.36410        1.24400
H          4.49440       -2.13480       -0.81830
H          5.34600       -3.35630        1.16750
H          5.88430       -0.44160        1.45970
H          6.75240       -1.59950        0.35980
H          6.86430       -1.78440        2.15050
