12
8557	1
F          3.24340        0.54780        0.95990
C          2.39310        0.08140       -0.02930
C          2.92400        0.54220       -1.39430
N          1.93880        1.01210       -2.39070
C          2.74790        1.97570       -1.61020
C          3.81070        2.59180       -2.42210
N          4.64270        3.07550       -3.05910
H          1.35830        0.43400        0.19550
H          2.40240       -1.02650       -0.00530
H          3.82370        0.07670       -1.86600
H          0.97640        1.00530       -1.97860
H          2.07530        2.61170       -0.98580
