17
8522	1
N          2.10610        0.87790       -0.90810
C          2.08360       -0.25530        0.00800
C          3.34260       -1.09980       -0.18470
O          3.23900       -2.30580        0.54210
C          3.19330       -2.41350       -0.86110
C          4.46650       -3.05490       -1.41360
N          4.44200       -4.49410       -1.18210
H          1.25550        1.46070       -0.73660
H          2.05970        0.52480       -1.89100
H          1.15730       -0.85080       -0.15450
H          2.07310        0.12280        1.05270
H          4.34680       -0.65830       -0.01310
H          2.18940       -2.75520       -1.19250
H          5.38160       -2.61930       -0.95290
H          4.50330       -2.86320       -2.50760
H          4.46460       -4.67690       -0.15310
H          5.30670       -4.91130       -1.59540
