17
8583	1
C          2.20000        1.24860       -0.63910
C          2.47460       -0.09260        0.03180
C          3.02510       -1.08280       -1.00150
C          2.86430       -2.55610       -0.65090
C          1.98960       -1.91420       -1.73570
C          2.36540       -2.23020       -3.12110
C          2.66770       -2.47620       -4.26260
H          1.83330        1.97980        0.11130
H          1.42850        1.13040       -1.43020
H          3.13080        1.64580       -1.09800
H          1.53680       -0.46140        0.50460
H          3.23250        0.04960        0.83150
H          3.98820       -0.87940       -1.51960
H          2.25480       -2.79840        0.24640
H          3.67780       -3.20150       -1.04910
H          0.92860       -1.74890       -1.45210
H          2.93400       -2.69420       -5.26400
