16
8570	1
N          1.63130        0.31490       -0.41370
C          2.92710       -0.26310       -0.07290
C          3.10550       -0.31470        1.45350
C          4.58420       -0.13540        2.02270
N          3.56900        0.86460        2.08520
C          3.72300        2.11620        1.41760
N          3.13070        3.16160        1.86620
H          1.51790        0.28560       -1.45270
H          1.60480        1.31750       -0.11980
H          3.74540        0.28890       -0.58340
H          2.95720       -1.30900       -0.44590
H          2.32980       -0.80670        2.07680
H          5.40620        0.21850        1.36230
H          4.81550       -0.40940        3.07260
H          4.34950        2.20200        0.53490
H          2.53320        3.11260        2.70460
