16
8587	1
C          2.76970        1.18350        0.32360
N          2.36320       -0.19470        0.06360
C          3.03350       -1.07410        1.03090
C          2.94820       -2.53430        0.59060
C          4.28430       -1.79690        0.55240
C          5.20900       -2.04980        1.66780
C          5.96840       -2.25450        2.58270
H          2.24710        1.86570       -0.37890
H          3.86730        1.29810        0.18190
H          2.49640        1.47770        1.36030
H          2.61050       -0.42850       -0.92760
H          2.71940       -1.01710        2.09720
H          2.68290       -2.77440       -0.46280
H          2.94690       -3.29650        1.39990
H          4.66240       -1.41460       -0.41990
H          6.64360       -2.43150        3.37930
