19
8529	1
C          1.37010        0.42050       -0.65460
C          2.86060        0.53000       -0.36150
N          3.06470        0.73010        1.08640
C          4.45810        1.17040        1.38320
C          3.35640        2.13590        1.43130
C          2.84290        2.50420        2.82480
N          3.58710        3.64680        3.34120
H          1.21510        0.23170       -1.73850
H          0.85460        1.36430       -0.37630
H          0.92810       -0.42130       -0.07910
H          3.29100        1.34200       -0.99330
H          3.34830       -0.42310       -0.66180
H          5.10730        1.15650        0.47910
H          4.78090        0.68530        2.32900
H          3.26960        2.86610        0.59620
H          2.92540        1.65080        3.53610
H          1.76910        2.77690        2.73850
H          4.58560        3.36850        3.48100
H          3.19620        3.90190        4.27670
