19
8659	1
N          2.43510       -1.54460        0.03370
C          2.59670       -0.09310        0.03620
C          3.13100        0.39930       -1.31920
C          3.23900        1.91790       -1.40290
C          4.10690        2.03970       -2.63020
C          5.17180        1.00690       -2.30020
N          4.46910       -0.11920       -1.66110
H          2.02030       -1.83330        0.94900
H          3.37160       -2.00190       -0.04500
H          3.28100        0.21250        0.85920
H          1.60330        0.37320        0.21690
H          2.43070        0.06510       -2.11920
H          3.80240        2.31010       -0.52380
H          2.26150        2.44090       -1.47130
H          4.50470        3.05730       -2.82920
H          3.52600        1.69900       -3.51860
H          5.87140        1.46300       -1.56000
H          5.75990        0.69330       -3.18800
H          5.00930       -0.38530       -0.80370
