15
8610	1
C          2.43190        1.16970       -0.70280
C          2.13540       -0.00190       -0.13470
C          3.11630       -0.70220        0.75620
O          3.39010       -1.97050        0.21300
C          4.44440       -1.04300        0.17130
C          5.50630       -1.45450        1.14440
C          6.60360       -0.71240        1.29880
H          1.70560        1.66240       -1.34090
H          3.39560        1.64120       -0.53410
H          1.16380       -0.45280       -0.31200
H          2.88200       -0.84750        1.83190
H          4.69360       -0.86590       -0.89670
H          5.38770       -2.36180        1.73100
H          6.74320        0.19830        0.72370
H          7.36920       -1.01580        2.00550
