15
8622	1
C          2.72740       -1.11410       -0.69540
C          2.20400       -0.07810       -0.03680
C          2.87680        0.47480        1.19200
C          4.38800        1.00940        1.04060
N          3.24710        1.83350        1.03470
N          2.91420        2.56450       -0.08400
C          2.44050        3.75130        0.03260
H          2.22890       -1.50560       -1.57610
H          3.65110       -1.57600       -0.35950
H          1.27570        0.36510       -0.38490
H          2.34980        0.39890        2.16530
H          4.86710        1.03650        0.03700
H          4.97850        1.27180        1.94210
H          2.18160        4.31820       -0.85460
H          2.29400        4.19610        1.01310
