18
8656	1
C          2.56220       -1.50680       -0.13050
N          2.43910       -0.05930        0.04880
C          2.94240        0.68220       -1.11770
C          2.78920        2.16490       -0.97510
C          3.68900        2.59800       -2.11880
O          4.80780        1.72800       -2.12590
C          4.45590        0.62510       -1.30970
H          2.11200       -2.02290        0.74340
H          3.62890       -1.80990       -0.20060
H          2.01730       -1.83350       -1.04220
H          2.95790        0.22280        0.91370
H          2.42170        0.35890       -2.05130
H          3.24600        2.49580       -0.01270
H          1.74790        2.54740       -1.03430
H          3.98810        3.66150       -2.00430
H          3.15500        2.46990       -3.08760
H          4.97750        0.75440       -0.33420
H          4.76410       -0.33910       -1.76610
