16
8589	1
C          2.44730        1.41300        0.09290
C          2.36100       -0.10890        0.12380
C          2.95820       -0.62800        1.43990
N          3.40500       -2.03350        1.42980
C          4.38740       -0.91960        1.41210
C          5.06050       -0.79900        2.70850
C          5.62500       -0.67170        3.76590
H          1.99890        1.79840       -0.84630
H          3.51010        1.73540        0.13910
H          1.90010        1.84780        0.95670
H          2.89540       -0.51280       -0.76480
H          1.29620       -0.41910        0.06300
H          2.48910       -0.36410        2.41330
H          3.33370       -2.42070        0.45980
H          4.99090       -0.96130        0.47810
H          6.12610       -0.55950        4.69110
