14
8675	1
F          3.07750        0.16730       -1.12900
C          2.27770       -0.21680       -0.06790
C          3.00230       -1.25810        0.78010
O          2.18690       -1.62610        1.87800
C          2.30620       -3.00990        1.92180
C          2.47770       -3.38700        0.49020
O          3.30980       -2.39220       -0.01250
H          1.32770       -0.63710       -0.46140
H          2.04630        0.67630        0.55030
H          3.95060       -0.82930        1.17240
H          1.41710       -3.50350        2.36800
H          3.21860       -3.26530        2.50800
H          1.50380       -3.33160       -0.04730
H          2.91280       -4.40340        0.38740
