20
8641	1
N          3.09590       -1.15380       -0.60840
C          2.44920        0.04510       -0.08270
C          3.05320        1.31460       -0.70260
C          2.41940        2.60230       -0.17500
C          3.33610        3.64580       -0.79340
C          4.74590        3.04460       -0.67990
C          4.51920        1.56130       -0.35150
H          2.61140       -1.99060       -0.21050
H          4.08760       -1.18590       -0.27880
H          2.54130        0.06860        1.02640
H          1.36810        0.00850       -0.34070
H          2.93660        1.27450       -1.81140
H          2.50830        2.64320        0.93540
H          1.35250        2.73570       -0.45560
H          3.23460        4.68400       -0.41320
H          3.07330        3.66360       -1.87690
H          5.35110        3.49570        0.13650
H          5.26550        3.19780       -1.65100
H          4.59370        1.46130        0.75700
H          5.26710        0.87220       -0.79730
