17
8678	1
O          1.70630        0.99210       -0.04010
C          2.20790       -0.04140        0.37200
C          2.93320       -0.96170       -0.57030
C          4.39270       -1.17160       -0.12740
C          4.66690       -2.62710       -0.46880
C          3.37680       -3.27560        0.02150
C          2.32690       -2.37940       -0.62060
H          2.12480       -0.29550        1.42420
H          2.89760       -0.55170       -1.60580
H          4.45040       -1.11620        0.98570
H          5.10970       -0.42720       -0.53370
H          5.58280       -3.02800        0.01520
H          4.75550       -2.74800       -1.57290
H          3.31700       -3.18000        1.13010
H          3.26890       -4.34760       -0.24850
H          1.29180       -2.48800       -0.23100
H          2.30200       -2.68080       -1.69380
