14
8685	1
N          0.94870        0.05620       -0.29790
C          2.10010        0.06230       -0.18100
C          3.56150        0.06990       -0.03200
C          4.07860        1.13620        0.88040
C          5.49260        0.61180        1.05890
O          5.40860       -0.80050        1.14740
C          4.11160       -1.14640        0.69480
H          4.04830        0.16670       -1.03040
H          3.54710        1.08040        1.86020
H          4.01650        2.17490        0.49090
H          5.96920        1.05940        1.95650
H          6.10160        0.85800        0.15970
H          3.49690       -1.37620        1.59570
H          4.12620       -2.03380        0.02680
