21
8640	1
C          2.59840       -1.40540        0.54540
C          2.41020        0.00150       -0.01900
C          2.77060        1.09200        1.00440
C          2.57760        2.50970        0.46440
C          2.80700        3.32770        1.72540
C          2.11240        2.52950        2.83940
C          1.86820        1.13750        2.23680
H          2.35200       -2.15410       -0.23670
H          1.92770       -1.57480        1.41330
H          3.65250       -1.55570        0.86190
H          1.35630        0.12260       -0.35240
H          3.07110        0.11290       -0.90590
H          3.83230        0.96500        1.32300
H          1.52660        2.64730        0.11970
H          3.26700        2.78060       -0.36390
H          2.53500        4.40300        1.67700
H          3.90420        3.27300        1.91700
H          1.13040        2.95840        3.13630
H          2.78720        2.50850        3.72290
H          0.82060        1.13200        1.85370
H          1.96030        0.30040        2.96030
