12
8624	1
C          1.16900       -0.02380       -0.13080
N          1.72210        0.73960       -1.00150
N          2.90410        1.38430       -0.71910
C          3.97890        1.35180       -1.63320
C          3.15890        2.67020       -1.22740
C          3.74270        3.50830       -0.17810
N          4.20570        4.17580        0.64620
H          0.23980       -0.52910       -0.37100
H          1.62260       -0.17450        0.84470
H          3.67190        0.77690       -2.53330
H          4.87590        1.03860       -1.05910
H          2.29370        3.03710       -1.82110
