17
8661	1
F          2.76160       -1.24730       -0.22500
C          2.33690        0.05830       -0.05770
C          2.74780        0.56710        1.32760
C          2.32820        2.01120        1.58180
C          2.47020        2.05800        3.08230
C          1.77280        0.75900        3.45050
N          2.18260       -0.22510        2.43570
H          1.23270        0.09800       -0.17340
H          2.80110        0.68990       -0.84450
H          3.85710        0.50970        1.41670
H          1.25200        2.14640        1.32350
H          2.93060        2.76470        1.03090
H          2.03900        2.95950        3.56720
H          3.55010        1.98410        3.34730
H          0.67190        0.92360        3.36810
H          1.99980        0.42320        4.48390
H          1.33490       -0.76550        2.14090
