11
8630	1
C          1.01090        0.04230       -0.05790
C          2.21200        0.10530        0.02260
C          3.67630        0.20570        0.13450
N          4.39770       -0.54180       -0.91960
C          4.32880        0.93290       -0.95270
C          5.62960        1.51060       -0.60430
N          6.65410        1.97260       -0.32850
H         -0.04440       -0.00220       -0.12290
H          4.18030        0.06420        1.11450
H          3.72470       -0.91290       -1.63210
H          3.79830        1.27350       -1.87070
