12
8629	1
O          0.91950        0.54750       -0.07640
C          2.05420        0.10570        0.02280
C          3.24910        1.02340        0.11180
N          3.37430        1.86990       -1.10320
C          3.03350        2.47150        0.19490
C          4.17480        3.21390        0.73680
C          5.11820        3.81910        1.18060
H          2.20790       -0.96710        0.06380
H          4.24830        0.57100        0.29030
H          2.49620        1.85410       -1.67440
H          2.01450        2.91930        0.19750
H          5.94520        4.35170        1.57070
