17
8664	1
O          2.83230       -1.37390       -0.29590
C          2.51870       -0.04300        0.00570
C          2.96080        0.85780       -1.14770
C          2.64130        2.32420       -0.88050
C          3.56930        2.94180       -1.87490
C          4.80130        2.09790       -1.60090
O          4.35840        0.77220       -1.37070
H          2.52110       -1.91190        0.47780
H          3.04660        0.26450        0.93650
H          1.41860        0.06000        0.14170
H          2.44920        0.53810       -2.08550
H          2.98010        2.61140        0.14290
H          1.57020        2.59470       -0.99780
H          3.72430        4.03650       -1.76890
H          3.19540        2.72410       -2.90250
H          5.30170        2.45300       -0.67170
H          5.51710        2.15810       -2.44770
