13
8774	1
F          1.63840        0.72410       -0.98860
C          2.32730       -0.01750       -0.04610
C          2.84780       -1.30660       -0.68030
C          3.58540       -2.21800        0.34160
C          2.74540       -3.43730        0.23740
N          1.78950       -3.27970       -0.57600
O          1.79840       -2.09040       -1.11900
H          1.64500       -0.24960        0.79980
H          3.17930        0.58590        0.33260
H          3.51100       -1.07160       -1.54130
H          3.54430       -1.83730        1.38510
H          4.62860       -2.43500        0.02810
H          2.90350       -4.35560        0.78660
