14
8773	1
O          2.39510        1.55220       -0.15430
C          2.57770        0.17230       -0.00120
C          2.90410       -0.45280       -1.35880
C          3.06910       -1.99750       -1.27930
C          2.00980       -2.40950       -2.23400
N          1.39150       -1.41240       -2.70680
O          1.85430       -0.28190       -2.24060
H          2.19590        1.90520        0.75160
H          1.64760       -0.28740        0.40330
H          3.42720       -0.01760        0.69240
H          3.81840        0.01230       -1.78880
H          2.83560       -2.41700       -0.27680
H          4.06750       -2.32820       -1.63640
H          1.76890       -3.42980       -2.50000
