14
8745	1
N          0.99460       -0.18850        0.14190
N          2.36230       -0.07320        0.25670
C          2.94560        0.57420        1.21100
N          2.30090        1.24160        2.24890
C          3.29100        1.83280        3.10010
C          4.63200        1.41760        2.41400
O          4.27040        0.67170        1.30080
H          0.59840       -0.72020       -0.64550
H          0.34950        0.23960        0.81810
H          1.28750        1.31720        2.40730
H          3.21030        1.40970        4.12430
H          3.16640        2.93670        3.11460
H          5.24850        0.79460        3.09670
H          5.20520        2.31350        2.09300
