17
8757	1
C          1.01440       -0.05540        0.01920
O          2.20720        0.50450       -0.48570
C          2.81680        1.34870        0.48280
C          4.32910        1.32220        0.20460
C          4.43740        2.32260       -0.88780
C          3.35010        3.15540       -0.89940
C          2.39800        2.80170        0.18380
H          0.50790       -0.59980       -0.80380
H          0.30760        0.72760        0.37230
H          1.23380       -0.79390        0.82110
H          2.59180        1.00570        1.52140
H          4.66080        0.29750       -0.06920
H          4.92270        1.70710        1.06190
H          5.30680        2.46770       -1.51500
H          3.27220        4.02610       -1.53670
H          1.32810        2.86070       -0.10720
H          2.60560        3.48210        1.03770
