14
8777	1
N          2.68960        1.38640        0.02330
C          2.29700       -0.01500       -0.08970
C          2.97180       -0.85490        0.99760
O          2.60070       -2.19230        0.88100
C          3.69010       -2.93490        0.66560
C          4.76530       -2.12280        0.63750
O          4.35590       -0.86660        0.83550
H          2.18530        1.93100       -0.71330
H          3.71440        1.47590       -0.16530
H          2.56800       -0.40480       -1.09660
H          1.19480       -0.09150        0.03340
H          2.70490       -0.47290        2.00720
H          3.69590       -4.00870        0.53650
H          5.79180       -2.42600        0.48150
