16
8699	1
O          2.63180       -1.08030       -0.46400
C          2.65200        0.02790        0.04980
N          2.97660        1.12450       -0.68240
C          3.01010        2.45110       -0.12130
C          3.07680        3.32950       -1.37110
C          3.90210        2.47440       -2.31750
C          3.31520        1.08190       -2.08490
H          2.40630        0.13020        1.10260
H          3.91730        2.54080        0.51550
H          2.09650        2.70450        0.45950
H          3.45190        4.35930       -1.19300
H          2.05340        3.39320       -1.80760
H          4.94610        2.48230       -1.92760
H          3.91680        2.79860       -3.37940
H          4.08180        0.31440       -2.32910
H          2.38390        0.90630       -2.66670
