11
8855	1
C          0.95060        0.07160        0.07730
N          2.39310        0.04100        0.02680
C          3.03000       -0.30420       -1.03440
N          4.36300       -0.35170       -1.14050
H          5.08340       -0.12860       -0.41850
N          4.60840       -0.74920       -2.37850
N          3.45150       -0.93700       -3.00400
O          2.48780       -0.66150       -2.17120
H          0.62820        0.39800        1.08730
H          0.53890       -0.94140       -0.12040
H          0.55630        0.78920       -0.67400
