15
8791	2
C          2.46320        1.16090       -0.00820
C          2.20290       -0.14490        0.10090
C          3.25950       -1.18430       -0.17170
C          3.46830       -2.14220        1.04300
N          3.12450       -3.44920        0.51910
C          2.77100       -3.38080       -0.69680
N          2.81390       -2.08700       -1.19670
H          1.68280        1.88730        0.19410
H          3.44880        1.51260       -0.29770
H          1.20640       -0.46490        0.39250
H          4.22660       -0.72990       -0.48290
H          2.79910       -1.90240        1.89810
H          4.52840       -2.13790        1.37540
H          2.47470       -4.24410       -1.27730
H          2.57930       -1.82130       -2.16430
