15
8788	1
C          1.69070       -1.12330        0.42220
C          2.42250       -0.21730       -0.23230
C          3.26930        0.79020        0.50140
C          4.76490        0.72830        0.06300
C          4.97290        2.10910       -0.48950
N          3.92170        2.81470       -0.43250
N          2.89330        2.12520        0.12200
H          1.09000       -1.83680       -0.13240
H          1.68530       -1.16010        1.50730
H          2.40650       -0.20630       -1.31860
H          3.18170        0.68950        1.60620
H          4.95430       -0.01830       -0.73870
H          5.43750        0.55670        0.93010
H          5.90280        2.47920       -0.89940
H          1.96040        2.53640        0.27110
