11
8842	2
O          1.08340        0.10720        0.01490
N          2.39660        0.02060        0.04300
C          2.98580       -0.85540        0.77390
N          4.31760       -0.99520        0.84710
H          5.05450       -0.44670        0.35050
C          4.48690       -2.01320        1.71470
N          3.29460       -2.47540        2.15310
N          2.36060       -1.74730        1.56130
H          1.33330       -1.87020        1.70280
H          0.65460        0.77200       -0.54030
H          5.44700       -2.40770        2.01940
