15
8794	1
C          2.57030       -1.18270        0.47820
C          2.01810       -0.18430       -0.21720
C          2.77160        0.52740       -1.31080
C          2.02340        0.43950       -2.67510
C          1.82280        1.87450       -2.98880
C          2.32470        2.63160       -1.98380
O          2.85800        1.87830       -1.02180
H          2.00270       -1.67610        1.26040
H          3.58430       -1.51310        0.27420
H          1.00140        0.12290        0.01140
H          3.80440        0.12790       -1.42420
H          1.02890       -0.05220       -2.59980
H          2.64800       -0.04750       -3.45400
H          1.34110        2.26830       -3.87390
H          2.30160        3.71270       -1.95800
