11
8848	1
O          1.06260       -0.03710       -0.04090
N          2.37670       -0.10350       -0.03280
C          2.97430       -1.16570        0.36510
N          4.31080       -1.30020        0.39900
H          5.03220       -0.59790        0.12130
C          4.51980       -2.54140        0.87040
C          3.28870       -3.12280        1.10860
O          2.36050       -2.24850        0.78670
H          0.62110        0.76810       -0.34260
H          5.49260       -2.98800        1.02820
H          3.10100       -4.11720        1.49080
