11
8836	1
O          1.11280        0.19370        0.05820
N          2.40540       -0.03060       -0.04520
C          2.94660       -1.04060        0.53680
C          2.23180       -2.05890        1.37380
C          3.45480       -2.87490        1.68810
N          4.51140       -2.39350        1.14980
O          4.25400       -1.31060        0.46160
H          0.71760        0.95680       -0.38420
H          1.48520       -2.63610        0.78910
H          1.78240       -1.61410        2.28630
H          3.46440       -3.76910        2.29650
