11
8965	4
O          2.68290       -1.29730        0.11480
N          2.26420       -0.07690       -0.24840
C          2.90880        1.07730        0.25260
C          2.59670        2.38120       -0.03710
N          3.46160        3.13950        0.65530
H          3.51130        4.18190        0.66990
N          4.26470        2.33350        1.33640
N          3.94740        1.06570        1.10740
H          2.11050       -1.54390        0.88580
H          1.47760        0.01760       -0.90780
H          1.81650        2.75290       -0.68830
