14
8920	1
O          2.52140        1.14090        0.01680
C          2.45200       -0.07870        0.04380
N          2.85100       -0.77230        1.14050
C          2.79630       -2.21180        1.23940
C          3.35280       -2.51800        2.66160
C          3.66610       -1.15960        3.21380
C          3.36090       -0.19790        2.30480
H          2.06610       -0.60830       -0.82200
H          3.43520       -2.67320        0.45520
H          1.74570       -2.56190        1.14020
H          4.27960       -3.12790        2.61010
H          2.58900       -3.01660        3.29560
H          4.07690       -0.96220        4.19500
H          3.49500        0.86490        2.46280
