14
8958	2
N          0.93650       -0.12770        0.19760
N          2.30010       -0.04890        0.02320
C          2.92380       -0.66840       -0.92270
N          4.31160       -0.58790       -1.09990
C          4.72710       -1.38360       -2.23600
C          3.41210       -1.95560       -2.72320
C          2.36080       -1.52510       -1.93960
H          0.49510        0.38910        0.97080
H          0.34060       -0.69060       -0.42470
H          4.94920       -0.03900       -0.50490
H          5.42070       -2.19000       -1.91830
H          5.19720       -0.74430       -3.01250
H          3.30120       -2.61590       -3.57290
H          1.32660       -1.80030       -2.09200
