15
8939	1
N          1.03030       -0.12640        0.17590
N          2.40090       -0.17600        0.04930
C          3.02560       -1.14750       -0.53120
C          4.51390       -1.18590       -0.65940
C          4.77900       -2.51490       -1.41520
C          3.41960       -3.10620       -1.63750
C          2.42800       -2.32000       -1.13160
H          0.59620        0.67760        0.65030
H          0.42070       -0.86930       -0.19100
H          4.98120       -1.19710        0.34880
H          4.87170       -0.31250       -1.24590
H          5.39660       -3.20600       -0.80270
H          5.26850       -2.32640       -2.39450
H          3.23790       -4.04610       -2.14170
H          1.37850       -2.57010       -1.19110
