11
8986	1
O          0.97630       -0.01730       -0.10240
N          2.29170       -0.05170       -0.10180
C          2.93450       -0.40120        0.95030
C          4.30400       -0.47450        1.06950
C          4.50360       -0.89140        2.37090
N          3.29900       -1.04550        2.95700
H          3.11760       -1.35130        3.93840
O          2.37910       -0.74650        2.08740
H          0.50010        0.24770       -0.90060
H          5.05310       -0.25680        0.31960
H          5.45370       -1.06980        2.85660
