15
8916	1
C          1.18480        0.11310        0.91980
C          2.19750       -0.15300        0.08170
C          3.17010        0.88460       -0.44280
O          4.49040        0.53630       -0.03360
C          5.03900        1.63000        0.69640
C          4.01890        2.68720        0.70330
C          2.93660        2.26170        0.04200
H          0.53460       -0.69170        1.24730
H          0.99010        1.11380        1.28810
H          2.33540       -1.17940       -0.24520
H          3.11890        0.89660       -1.55220
H          5.95470        2.00110        0.19010
H          5.26350        1.31980        1.73860
H          4.11620        3.66110        1.16440
H          2.03940        2.84820       -0.10860
