14
8922	1
N          2.32680        1.24140       -0.24150
C          2.28530       -0.00870        0.04790
N          2.81120       -0.48470        1.27970
C          2.80630       -1.86340        1.68360
C          3.49080       -1.79290        3.07980
N          3.78360       -0.38410        3.26300
C          3.40100        0.29880        2.26580
H          1.94480        1.58350       -1.13500
H          1.84410       -0.71030       -0.65500
H          3.40000       -2.47340        0.96890
H          1.76200       -2.23600        1.75990
H          4.43530       -2.37750        3.09290
H          2.80390       -2.14080        3.88070
H          3.52630        1.37190        2.20290
