15
8907	1
C          1.65590        0.22610        1.12230
C          2.39030       -0.03900        0.03340
C          3.16080        1.01160       -0.74140
C          4.69390        0.73820       -0.70970
O          5.27510        1.93120       -0.31780
C          4.36540        2.85860       -0.01750
C          3.10500        2.40560       -0.22060
H          1.13120       -0.57980        1.62520
H          1.56790        1.22920        1.52370
H          2.43960       -1.06530       -0.31850
H          2.78490        1.04450       -1.78680
H          5.06130        0.42160       -1.70910
H          4.96500       -0.03010        0.04760
H          4.61200        3.85030        0.33690
H          2.21010        2.99430       -0.06570
