15
8896	1
C          3.52130        0.15770       -0.96830
O          2.40150        0.21420       -0.11220
C          2.80590        0.51750        1.20920
O          1.87120       -0.05330        2.12130
C          1.27100        1.00010        2.86920
C          1.87340        2.25120        2.39140
C          2.76280        1.97490        1.43130
H          3.16020        0.00920       -2.00650
H          4.17060       -0.70970       -0.71710
H          4.09350        1.11180       -0.95790
H          3.82010        0.12790        1.46460
H          1.48890        0.87060        3.95010
H          0.17580        1.01990        2.68770
H          1.64350        3.24530        2.75130
H          3.35260        2.71670        0.90890
