12
8985	1
N          0.89450       -0.03800       -0.08240
N          2.26870       -0.09790       -0.04830
C          2.89630       -0.70580        0.89410
C          4.26450       -0.81350        1.00490
C          4.45010       -1.54360        2.16210
N          3.23960       -1.83400        2.67970
H          3.04770       -2.37480        3.55160
O          2.32930       -1.32270        1.90420
H          0.42630        0.45820       -0.85340
H          0.32040       -0.48140        0.65060
H          5.02200       -0.41850        0.34060
H          5.39500       -1.84210        2.59650
