15
8981	1
C          1.07100       -0.14800        0.04630
C          2.54300        0.13850        0.08240
C          3.11360        1.03820       -0.73220
O          4.43210        1.31260       -0.71860
C          4.76130        2.28150       -1.66090
C          3.43580        2.60120       -2.30040
C          2.45680        1.84250       -1.72760
H          0.82190       -0.92180        0.80220
H          0.78080       -0.52290       -0.95790
H          0.49800        0.77470        0.27730
H          3.16390       -0.40130        0.79150
H          5.47240        1.87220       -2.40880
H          5.18750        3.17870       -1.16510
H          3.27220        3.31960       -3.09250
H          1.40660        1.86120       -1.98770
