14
8903	1
N          1.02190       -0.01760        0.21670
C          2.17620       -0.04820        0.13850
C          3.64210       -0.08770        0.03900
C          4.23580       -1.34030        0.70180
C          4.43480       -0.98840        2.18200
C          4.66550        0.47650        2.09350
C          4.21840        0.98090        0.89800
H          3.95470       -0.03670       -1.02590
H          5.26990       -1.41680        0.28840
H          3.73970       -2.31020        0.48400
H          5.28850       -1.56310        2.60080
H          3.51580       -1.14880        2.78540
H          5.02530        1.09660        2.90370
H          4.19360        2.03880        0.67110
