15
8891	1
F          3.02150        1.13620       -0.44320
C          2.29910        0.02150       -0.05550
C          2.94150       -1.24620       -0.61710
N          2.17280       -2.43520       -0.19090
C          3.08350       -3.31210        0.57310
C          4.38110       -2.61250        0.59670
C          4.30390       -1.44410       -0.07660
H          1.26350        0.11630       -0.44460
H          2.25900       -0.02020        1.05440
H          2.98840       -1.18240       -1.72780
H          1.82640       -2.94680       -1.03620
H          3.19610       -4.30330        0.08120
H          2.70390       -3.44320        1.60800
H          5.27740       -2.97630        1.08180
H          5.13230       -0.75820       -0.19780
