13
8928	1
O          0.98670        0.10920        0.04130
C          2.16670        0.00020       -0.25670
N          2.86310        1.06210       -0.73670
N          4.21020        0.97020       -1.08450
C          4.55190        2.34250       -1.55330
C          3.29020        3.13880       -1.41610
C          2.32870        2.33170       -0.92900
H          2.65980       -0.95900       -0.13410
H          4.28890        0.29870       -1.88440
H          4.88700        2.33370       -2.61380
H          5.34370        2.77800       -0.90850
H          3.16030        4.18470       -1.65990
H          1.30680        2.62290       -0.72100
