11
8978	1
C          0.90980        0.03830       -0.03380
N          2.35390        0.04470       -0.07390
C          3.02320       -0.64130       -0.93180
N          2.49240       -1.43380       -1.87990
N          3.53540       -1.93700       -2.52750
O          4.62690       -1.46540       -1.98900
N          4.35890       -0.66340       -1.00290
H          5.05520       -0.15850       -0.41080
H          0.56530        0.70170        0.78580
H          0.53630       -0.99050        0.15770
H          0.49810        0.41410       -0.99510
