11
9044	1
C          0.96570       -0.20580       -0.07680
N          1.95500        0.30760        0.56830
N          2.77070       -0.43310        1.42420
C          3.81030        0.05100        2.11760
N          4.38200       -0.92810        2.84550
N          3.70060       -2.04380        2.61320
C          2.71660       -1.74000        1.74470
H          0.36870        0.42340       -0.72740
H          0.70840       -1.25430        0.01020
H          4.14480        1.08000        2.09780
H          1.99800       -2.45570        1.37140
