12
9076	2
N          1.00710       -0.14650       -0.43410
C          2.10630        0.02700        0.20460
C          2.82570       -1.12050        0.77610
C          4.00960       -1.08140        1.48200
N          4.34360       -2.33850        1.83560
N          3.41100       -3.15940        1.37570
H          3.42160       -4.19470        1.50820
C          2.47110       -2.45120        0.72530
H          0.50340        0.65820       -0.83440
H          2.51060        1.02820        0.32530
H          4.59150       -0.20190        1.72420
H          1.59610       -2.87740        0.25200
