12
9021	1
C          2.43310       -0.71950        0.47360
O          2.70620        0.08380       -0.64730
N          3.04590        1.31300       -0.17570
C          2.22280        2.35590        0.00460
N          2.91080        3.41880        0.46530
C          4.18310        2.96320        0.54670
N          4.27050        1.67730        0.15180
H          2.15040       -1.73240        0.12050
H          1.57270       -0.31700        1.05280
H          3.33570       -0.83020        1.11430
H          1.15910        2.34760       -0.19330
H          5.02290        3.55630        0.88260
