12
9038	1
N          2.59460       -1.31040       -0.04280
C          2.20300       -0.08870       -0.08840
N          2.91830        0.87680       -0.87200
C          2.61120        2.17640       -1.00040
C          3.54180        2.75310       -1.83560
N          4.42660        1.81150       -2.22570
C          4.02030        0.67520       -1.62120
H          2.08010       -2.00300        0.52030
H          1.32260        0.21670        0.47100
H          1.77370        2.66900       -0.52300
H          3.57650        3.78990       -2.14200
H          4.52270       -0.27760       -1.72930
