12
9012	1
C          1.29610       -0.55460       -0.47320
O          2.67790       -0.47210       -0.22470
N          2.87600       -0.89380        1.05340
C          2.88750       -0.14430        2.16540
N          3.13490       -0.91710        3.24140
N          3.28640       -2.16360        2.80670
C          3.13050       -2.14340        1.46830
H          1.10410       -0.21430       -1.51140
H          0.72750        0.11680        0.20750
H          0.93910       -1.60540       -0.39600
H          2.72380        0.92470        2.19580
H          3.20200       -3.00950        0.82380
