15
8998	1
C          2.01190       -1.15200       -1.14190
C          2.37770       -0.11720       -0.07940
C          3.09900        1.09670       -0.68200
C          3.38660        2.14970        0.35810
N          2.79120        3.24200        0.08330
N          2.08000        3.12130       -1.06920
C          2.20700        1.94950       -1.55250
H          1.51570       -2.01990       -0.65860
H          2.92630       -1.50960       -1.66160
H          1.31280       -0.72060       -1.88830
H          3.05110       -0.60150        0.66100
H          1.45340        0.20770        0.44820
H          4.02620        0.79080       -1.21280
H          4.01350        2.02280        1.23060
H          1.72920        1.63770       -2.47140
