15
9005	1
C          3.24080       -1.15450        0.08910
N          2.19780       -0.22530       -0.34340
N          2.71090        0.65240       -1.31730
C          2.80870        1.98520       -1.17980
C          3.34520        2.52340       -2.33340
C          3.57370        1.46590       -3.19820
C          3.16880        0.32130       -2.54090
H          2.83330       -1.82240        0.87680
H          4.09830       -0.59130        0.51590
H          3.59120       -1.78300       -0.75780
H          1.39990       -0.75690       -0.76300
H          2.50950        2.53450       -0.29660
H          3.54570        3.56890       -2.52530
H          3.98670        1.52540       -4.19620
H          3.20480       -0.68640       -2.93420
