10
9051	1
O          2.69010       -1.10400        0.15160
C          2.24390        0.03070        0.08320
N          2.88990        0.98460       -0.65290
C          2.51390        2.26260       -0.81400
C          3.45520        2.85030       -1.62870
N          4.37380        1.91060       -1.93700
N          4.00800        0.78810       -1.33290
H          1.32830        0.27750        0.61240
H          1.63610        2.72340       -0.37880
H          3.47680        3.87540       -1.97270
