12
9040	1
C          1.21340       -0.21690       -0.20730
N          2.11510        0.39390        0.48040
N          2.87870       -0.23200        1.46710
C          3.82230        0.37610        2.19780
C          4.35490       -0.55560        3.06130
N          3.74010       -1.74220        2.86490
C          2.84090       -1.51630        1.88370
H          0.65560        0.32940       -0.95970
H          0.99110       -1.26600       -0.05880
H          4.10230        1.41790        2.10990
H          5.13890       -0.38560        3.78690
H          2.18370       -2.28110        1.49560
