14
8995	1
F          2.59350       -1.44100        0.52540
C          2.41380       -0.11370        0.17910
C          2.95050        0.13490       -1.22970
C          2.69020        1.53990       -1.68720
C          1.88520        1.55360       -2.80400
C          1.57100        0.26800       -3.15490
C          2.16570       -0.60580       -2.27280
H          2.96350        0.52130        0.90600
H          1.33130        0.13290        0.23850
H          4.03220       -0.11230       -1.28610
H          3.07900        2.43080       -1.21160
H          1.55890        2.44760       -3.31840
H          0.95430       -0.02620       -3.99360
H          2.07350       -1.68230       -2.33440
