9
9066	1
O          2.48330       -1.14750       -0.21440
C          2.25170        0.00950        0.10030
N          2.94190        0.59990        1.12070
N          2.75690        1.84280        1.52670
C          3.63020        2.01190        2.53760
N          4.33370        0.87750        2.73570
N          3.88430        0.01370        1.83880
H          1.49190        0.56880       -0.43660
H          3.75020        2.92340        3.10720
