15
8997	1
C          0.99510        0.19750        0.09580
O          2.29680       -0.27260       -0.17540
C          2.79660       -0.98060        0.94070
C          4.28420       -1.12060        0.82540
C          4.65420       -2.44250        0.72690
C          3.53720       -3.23070        0.76320
C          2.42140       -2.43530        0.88600
H          0.60070        0.68050       -0.82160
H          1.00830        0.97130        0.89480
H          0.30100       -0.63490        0.34610
H          2.54120       -0.50700        1.91740
H          4.98490       -0.29600        0.81910
H          5.67350       -2.79290        0.63420
H          3.52220       -4.31080        0.70500
H          1.41140       -2.81960        0.93780
