12
9053	1
C          0.81410        0.00480        0.08990
C          2.03040        0.44130        0.43230
N          2.82050       -0.23790        1.42120
C          4.04720        0.11520        1.83570
N          4.49460       -0.74300        2.77280
C          3.48110       -1.62760        2.90240
N          2.45810       -1.32380        2.08030
H          0.23970        0.53820       -0.66060
H          0.38520       -0.87920        0.55060
H          2.42760        1.32990       -0.05000
H          4.60320        0.96940        1.47090
H          3.49030       -2.47110        3.57930
