12
9072	1
O          0.86870       -0.03800        0.16640
N          2.18460       -0.04670        0.14280
C          2.82240       -0.20790       -0.96120
C          4.26090       -0.23560       -1.11390
C          4.52200       -0.43000       -2.46030
C          3.32020       -0.52600       -3.16250
C          2.25700       -0.39570       -2.28500
H          0.40100        0.08420        1.00330
H          5.00410       -0.12680       -0.33500
H          5.51180       -0.49600       -2.89190
H          3.22300       -0.67870       -4.22900
H          1.20940       -0.43010       -2.55400
