13
9075	1
C          1.92090       -1.33160        0.00660
C          1.98550       -0.00060        0.11880
C          2.80560        0.66980        1.14840
C          2.92260        2.03320        1.32620
N          3.75480        2.26680        2.36010
N          4.16240        1.09980        2.83530
H          4.81670        0.98930        3.64100
C          3.60520        0.10520        2.12260
H          1.30380       -1.77760       -0.76670
H          2.47300       -1.98490        0.67300
H          1.41390        0.61170       -0.57260
H          2.43710        2.80610        0.74510
H          3.77590       -0.94670        2.30790
