13
9017	1
C          2.47640       -0.45250        0.80390
N          3.28850        0.45090       -0.00790
N          3.51000       -0.12830       -1.26960
C          3.11520        0.37150       -2.44720
C          3.55250       -0.51120       -3.41010
N          4.20140       -1.51650       -2.78190
N          4.16270       -1.25920       -1.48160
H          2.30710        0.00150        1.80270
H          2.98740       -1.43040        0.94120
H          1.48940       -0.61260        0.31980
H          4.21720        0.59650        0.45140
H          2.56170        1.29040       -2.58840
H          3.41490       -0.43510       -4.48010
