13
9022	1
C          0.85220       -0.01070       -0.22280
C          2.34660       -0.11430        0.05830
N          2.67510        0.53640        1.32280
C          3.22060       -0.01700        2.41600
N          3.36550        0.92730        3.36380
N          2.90360        2.05130        2.82960
N          2.48670        1.81490        1.59430
H          0.61750       -0.51160       -1.18560
H          0.54540        1.05460       -0.29100
H          0.27720       -0.50470        0.58900
H          2.91500        0.37170       -0.76320
H          2.63180       -1.18840        0.09800
H          3.50130       -1.05670        2.52290
