12
9070	1
F          0.89080        0.25810       -0.03930
C          2.24790        0.18750       -0.02470
C          2.86510       -0.86030        0.52650
C          4.29790       -1.07570        0.61740
C          4.49480       -2.28450        1.26210
C          3.26300       -2.84730        1.58480
C          2.24520       -2.01360        1.15530
H          2.82800        0.99200       -0.46580
H          5.08040       -0.42240        0.25380
H          5.46260       -2.71720        1.47750
H          3.11340       -3.79050        2.09300
H          1.18630       -2.20250        1.27460
