12
9171	1
N          0.93490        0.04820       -0.01680
C          2.09080        0.05010       -0.07210
C          3.52910        0.05280       -0.14100
C          4.27500       -1.01690       -0.03440
C          5.70710       -0.64300       -0.14980
C          5.60410        0.88900       -0.35450
O          4.25060        1.16190       -0.32270
H          3.90000       -2.02140        0.11780
H          6.16680       -1.14680       -1.02670
H          6.24140       -0.89930        0.78990
H          6.02100        1.18810       -1.34000
H          6.11830        1.43630        0.46440
