17
9091	1
O          1.04530       -0.29420        0.27430
C          2.39250        0.03050        0.07790
C          2.79660        1.08690        1.06500
C          3.72200        0.91490        1.99860
C          3.80900        2.08950        2.90610
C          3.13740        3.16460        2.04930
C          2.12580        2.41460        1.18130
H          0.81620       -0.95480       -0.43000
H          2.54020        0.43810       -0.94640
H          3.01890       -0.88050        0.20950
H          4.26200       -0.01160        2.14700
H          4.84560        2.39730        3.16170
H          3.22830        1.85110        3.82300
H          3.92910        3.51010        1.34230
H          2.76390        4.06390        2.58240
H          1.98250        2.94880        0.21730
H          1.15420        2.25910        1.69800
