17
9100	1
N          3.72410        0.52720        0.64050
C          2.53350       -0.17940        0.17990
C          2.86920       -1.07810       -0.98090
C          2.73160       -2.37820       -0.96900
C          3.16890       -2.96650       -2.24960
N          3.52780       -1.82320       -3.11050
C          3.41370       -0.61140       -2.27760
H          3.46200        1.11190        1.46680
H          4.05290        1.17780       -0.10920
H          1.75620        0.55140       -0.13400
H          2.12450       -0.77950        1.02270
H          2.36950       -2.94840       -0.12280
H          2.34940       -3.56660       -2.70230
H          4.05570       -3.61160       -2.07770
H          2.80960       -1.75680       -3.86940
H          2.72970        0.13170       -2.74390
H          4.41560       -0.15750       -2.12890
