12
9164	1
O          2.28490        1.15510       -0.27020
C          2.31980        0.02400        0.18680
C          2.95000       -1.06590       -0.57420
N          3.01090       -2.25520       -0.14230
O          3.61460       -3.04820       -0.98840
C          4.03250       -2.39750       -2.13350
C          3.58390       -0.93030       -1.91410
H          1.88280       -0.17550        1.15990
H          3.53370       -2.84170       -3.02110
H          5.13720       -2.47050       -2.22490
H          2.83270       -0.60670       -2.66590
H          4.44740       -0.23290       -1.86410
