16
9095	1
N          1.55250        0.70020        0.97740
C          2.34050       -0.15700        0.09840
C          2.95800       -1.28820        0.87640
C          2.72960       -2.55990        0.65280
O          3.41660       -3.34160        1.48740
C          4.20670       -2.60900        2.35230
C          3.91270       -1.12970        2.00870
H          1.11230        1.45020        0.39730
H          2.18840        1.17030        1.66140
H          3.14660        0.43670       -0.38560
H          1.67860       -0.56010       -0.70000
H          2.06940       -2.94410       -0.11380
H          5.27370       -2.85500        2.16310
H          3.94080       -2.83620        3.40680
H          4.83010       -0.59110        1.68930
H          3.40970       -0.60710        2.85040
