15
9108	1
C          1.52410        0.86090        0.52670
O          2.19790       -0.01900       -0.29230
C          2.91440        0.37630       -1.37470
C          3.54700       -0.44610       -2.14450
C          4.21780        0.30520       -3.21820
O          3.91450        1.68020       -3.00480
C          3.09200        1.76520       -1.84770
H          1.02010        0.29170        1.33440
H          0.75390        1.41320       -0.05310
H          2.23560        1.57860        0.98820
H          3.57440       -1.52020       -2.01300
H          3.82570       -0.02240       -4.20410
H          5.31470        0.14360       -3.15780
H          2.10730        2.20430       -2.11380
H          3.59810        2.37050       -1.06630
