10
9187	1
C          1.05480        0.09750        0.03620
C          2.25650        0.11030       -0.05760
C          3.69050        0.12640       -0.16970
N          4.41480       -0.90440       -0.09210
O          5.66670       -0.54850       -0.23420
C          5.75760        0.82600       -0.41880
O          4.42660        1.22610       -0.36830
H         -0.00020        0.08610        0.11850
H          6.20050        1.06000       -1.40990
H          6.33970        1.29430        0.40270
