14
9136	1
N          3.05320        1.18640       -0.47610
N          2.55920        0.03870        0.14010
C          3.20610       -1.22210        0.00950
N          2.76470       -2.27330        0.56470
C          3.61710       -3.38790        0.25710
C          4.70700       -2.73640       -0.63230
O          4.32190       -1.41300       -0.69930
H          2.32060        1.53080       -1.13720
H          3.91350        0.97030       -1.02850
H          1.70290        0.10620        0.71030
H          3.04190       -4.15750       -0.30070
H          4.04820       -3.80550        1.19190
H          4.71550       -3.17980       -1.65090
H          5.71010       -2.81070       -0.16060
