12
9143	1
N          2.77820        1.15270       -0.49740
N          2.47080       -0.00150        0.21970
C          3.13680       -1.23520       -0.02250
N          2.89370       -2.29460        0.61940
O          3.67000       -3.24540        0.16380
C          4.48010       -2.75860       -0.85620
O          4.09060       -1.42570       -0.94280
H          1.91270        1.45540       -0.99860
H          3.51860        0.96010       -1.20940
H          1.74760        0.04210        0.95310
H          4.27330       -3.29210       -1.80800
H          5.55190       -2.83690       -0.57670
