15
9131	1
C          1.19830        0.77720        0.31620
C          2.39090       -0.10470       -0.03580
C          3.00490       -0.68650        1.20490
C          3.12170       -1.95590        1.48430
O          3.71990       -2.08470        2.67320
C          4.00140       -0.82260        3.18080
O          3.52460        0.03960        2.20320
H          0.76220        1.20130       -0.61260
H          1.51580        1.61460        0.97380
H          0.41880        0.17990        0.83600
H          3.15530        0.50200       -0.56610
H          2.05080       -0.91680       -0.71510
H          2.79350       -2.78140        0.86620
H          5.09610       -0.69210        3.31440
H          3.46400       -0.65960        4.13900
