15
9096	1
O          1.35120        0.81660        0.66040
C          2.20260       -0.06750       -0.01200
C          2.80060       -1.02560        0.97610
C          2.65980       -2.32840        0.93840
O          3.30390       -2.92540        1.94270
C          3.94890       -2.01580        2.75890
C          3.64350       -0.63180        2.13770
H          1.01870        1.45290       -0.02470
H          3.03080        0.49590       -0.49570
H          1.62740       -0.62370       -0.78610
H          2.09370       -2.86810        0.19030
H          5.04100       -2.22000        2.75930
H          3.54320       -2.08720        3.79080
H          4.56710       -0.12440        1.78550
H          3.06700        0.01430        2.83410
