14
9112	1
F          3.16210       -0.26520        1.22710
C          2.52110       -0.00190        0.03120
C          2.80410        1.40530       -0.39140
N          3.38020        1.69380       -1.48550
N          3.51360        3.03600       -1.62780
C          2.97220        3.76470       -0.51200
C          2.44530        2.62780        0.40900
H          1.42740       -0.13460        0.16450
H          2.87900       -0.72000       -0.73710
H          3.95700        3.47060       -2.44960
H          2.14830        4.42610       -0.85550
H          3.77630        4.35030       -0.01760
H          1.34430        2.68690        0.54410
H          2.97170        2.61620        1.38720
