14
9132	1
N          3.64190        0.04090        0.93270
C          2.62990       -0.11550       -0.10600
C          2.86470        0.87550       -1.20840
C          3.10670        0.59420       -2.45960
O          3.25870        1.73600       -3.13890
C          3.10370        2.80790       -2.26880
O          2.85260        2.20460       -1.04430
H          3.46120       -0.66790        1.67990
H          3.54710        0.98820        1.36670
H          1.61760        0.04910        0.32360
H          2.67820       -1.15160       -0.50740
H          3.17610       -0.39510       -2.89280
H          2.24200        3.43740       -2.57640
H          4.03600        3.40950       -2.22230
