13
9181	1
C          1.04210       -0.01120        0.09840
C          2.24750       -0.01210        0.09350
C          3.68890       -0.01200        0.08770
C          4.42110       -1.07580        0.01870
C          5.84240       -0.69410        0.03670
O          5.87990        0.72640        0.12470
C          4.53580        1.19040        0.15890
H         -0.01620       -0.01050        0.10270
H          4.04240       -2.08860       -0.04260
H          6.33140       -1.03060       -0.90170
H          6.33870       -1.14370        0.92240
H          4.33690        1.84540       -0.71580
H          4.34420        1.73210        1.10950
