15
9098	1
C          2.91290        1.42610       -0.39690
O          2.71780        0.12880        0.02480
C          3.34620       -0.40030        1.10440
C          3.16360       -1.62990        1.50710
O          3.89450       -1.90810        2.58820
C          4.65100       -0.82470        2.99680
C          4.31970        0.30250        1.98850
H          2.28870        1.61380       -1.29440
H          3.97900        1.58700       -0.66510
H          2.61290        2.13900        0.40060
H          2.50380       -2.34300        1.03050
H          5.73010       -1.08670        2.96030
H          4.36050       -0.53340        4.02890
H          5.21520        0.61260        1.40850
H          3.83480        1.17000        2.48520
