14
9200	1
O          3.21810       -0.89000       -0.67430
C          2.30470        0.01350       -0.11690
C          2.89110        1.39280       -0.06960
C          2.24730        2.51050        0.42260
C          3.13010        3.56230        0.28200
C          4.27590        3.04470       -0.28980
N          4.12420        1.72450       -0.50120
H          4.83660        1.08740       -0.92190
H          2.76570       -1.77320       -0.67450
H          2.05530       -0.29780        0.92150
H          1.38220        0.04530       -0.73770
H          1.24880        2.55570        0.83700
H          2.95780        4.59210        0.56470
H          5.16990        3.60170       -0.53730
