10
9262	1
F          2.58680        0.85400       -0.86420
C          2.29410       -0.05700        0.13500
C          2.86350       -1.39940       -0.18930
C          3.58840       -1.77010       -1.29800
N          3.88620       -3.07400       -1.15460
N          3.35840       -3.46630       -0.00300
O          2.75170       -2.46390        0.56490
H          1.19250       -0.14020        0.23910
H          2.72430        0.30350        1.09230
H          3.87890       -1.15490       -2.13920
