14
9253	1
C          1.01490       -0.17130       -0.23520
C          2.49670        0.00290        0.07730
C          2.77470        1.38700        0.57530
C          3.30130        1.73150        1.79970
C          3.36230        3.10650        1.77100
N          2.89290        3.53670        0.58330
O          2.55120        2.48630       -0.10670
H          0.83130       -1.20240       -0.60410
H          0.69670        0.54820       -1.01980
H          0.40680       -0.00640        0.68000
H          3.09310       -0.17750       -0.84210
H          2.79480       -0.74280        0.84590
H          3.60040        1.07320        2.60450
H          3.72350        3.75370        2.55880
