12
9224	1
F          3.09460       -1.14460        0.18080
C          2.34910        0.01140        0.03470
C          2.75280        1.03750        1.04530
N          2.18620        2.25930        1.12750
C          2.82120        2.86700        2.14970
C          3.76090        2.00500        2.66980
N          3.71350        0.85940        1.97340
H          4.30340        0.01150        2.12690
H          1.27440       -0.23240        0.16620
H          2.50760        0.41720       -0.98600
H          2.61060        3.87180        2.49060
H          4.43160        2.19780        3.49660
