12
9267	1
O          0.96430        0.29400       -0.14630
C          2.34820        0.11160       -0.05110
C          2.75270       -1.03130       -0.92080
N          3.62110       -0.92860       -1.94760
C          3.69440       -2.17690       -2.44520
C          2.87010       -2.99420       -1.70530
O          2.30760       -2.25920       -0.77780
H          0.74420        1.04640        0.46230
H          2.63040       -0.12840        0.99750
H          2.87480        1.03300       -0.38550
H          4.30680       -2.46740       -3.28820
H          2.70310       -4.05340       -1.84720
