15
9190	1
O          3.31620       -0.38040       -1.06420
C          2.49520        0.06140       -0.02050
C          2.86250       -0.66670        1.23910
C          3.28900       -0.07230        2.35070
C          3.53580       -1.01400        3.31440
C          3.25920       -2.26130        2.81060
C          2.78880       -2.16150        1.39700
H          3.00070        0.08880       -1.87980
H          1.43060       -0.16150       -0.25320
H          2.62520        1.15840        0.11790
H          3.42040        0.99520        2.47350
H          3.89190       -0.81720        4.31680
H          3.37000       -3.18140        3.36890
H          1.74950       -2.53600        1.28540
H          3.47760       -2.68430        0.70060
