13
9212	2
O          2.56230       -0.70340       -1.22180
C          2.57020        0.08800       -0.06660
C          2.90470       -0.74210        1.13570
C          2.99780       -0.28190        2.43040
C          3.32380       -1.39540        3.17870
N          3.41860       -2.46390        2.36150
N          3.16410       -2.06320        1.12610
H          3.17080       -2.69520        0.29510
H          2.33570       -0.09350       -1.97120
H          1.56490        0.53870        0.08670
H          3.33640        0.88830       -0.16480
H          2.84870        0.72930        2.78530
H          3.48200       -1.42740        4.24820
