17
9188	1
C          3.60510       -0.21580       -0.88340
C          2.45450        0.17950        0.03660
C          2.94260        0.46070        1.43340
C          2.81060        1.63600        2.04400
C          3.34650        1.56870        3.30270
C          3.84140        0.30620        3.51800
C          3.62810       -0.55110        2.31450
H          3.21390       -0.41040       -1.90410
H          4.10110       -1.13910       -0.51650
H          4.35200        0.60490       -0.93810
H          1.71020       -0.64410        0.07270
H          1.95830        1.08060       -0.38610
H          2.34730        2.51280        1.60990
H          3.37850        2.37610        4.02200
H          4.31770       -0.01240        4.43560
H          2.96680       -1.41380        2.54040
H          4.59390       -0.89090        1.88590
