11
9282	1
C          2.17990       -0.89880        0.88910
O          2.71360       -0.00230       -0.00990
C          3.26330       -0.39440       -1.17980
N          3.79240        0.45310       -2.07860
C          4.20570       -0.37710       -3.05770
N          3.93330       -1.66190       -2.75280
O          3.35370       -1.63540       -1.59090
H          1.79100       -0.34490        1.76810
H          2.96180       -1.61000        1.23200
H          1.34250       -1.45940        0.42070
H          4.69200       -0.05450       -3.96840
