12
9275	1
C          0.96970       -0.18160        0.12330
N          2.39370        0.03870        0.04960
C          2.92410        1.34910       -0.01920
N          4.23600        1.62930       -0.08970
N          4.33110        2.94920       -0.13850
C          3.07300        3.43370       -0.09610
O          2.21060        2.44760       -0.02280
H          0.75740       -1.27060        0.16980
H          0.47510        0.24250       -0.77610
H          0.55950        0.30330        1.03440
H          3.03450       -0.76880        0.04680
H          2.81550        4.48400       -0.11930
