12
9232	2
C          1.11050       -0.43550       -0.43870
O          2.26610       -0.07530        0.21990
C          2.96470       -0.93590        0.99450
N          4.09600       -0.59910        1.64480
C          4.43720       -1.74090        2.27500
N          3.54930       -2.71600        2.01260
H          3.56840       -3.69720        2.36800
N          2.62400       -2.22100        1.21170
H          0.72670        0.43830       -1.00420
H          0.33660       -0.75620        0.29140
H          1.31740       -1.26070       -1.15360
H          5.30810       -1.85620        2.90640
