10
9280	1
F          1.10880       -0.73790       -0.11050
C          2.29790       -0.05760        0.07150
C          2.65430        0.66800       -1.18120
N          2.81000        2.00170       -1.27340
C          3.12220        2.17660       -2.57270
N          3.15150        0.99950       -3.22640
O          2.85960        0.09510       -2.34120
H          3.10130       -0.78140        0.32070
H          2.18290        0.65950        0.91140
H          3.32270        3.13590       -3.03020
