14
9211	2
N          3.62350       -0.27460       -1.03960
C          2.66210       -0.01200        0.02580
C          3.04060       -0.76520        1.26320
C          3.35030       -0.21910        2.49300
C          3.62370       -1.30230        3.29950
N          3.47860       -2.42510        2.57220
H          3.61830       -3.40230        2.91120
N          3.12490       -2.10770        1.33710
H          3.34160        0.27660       -1.88230
H          3.58520       -1.28760       -1.29830
H          1.64360       -0.32090       -0.29630
H          2.64870        1.07860        0.24180
H          3.37410        0.82740        2.76650
H          3.90820       -1.27660        4.34300
