12
9281	1
C          0.90630        0.16630        0.09450
N          2.33560       -0.00540       -0.00230
C          2.89380       -0.99440       -0.84710
N          4.21380       -1.20870       -0.98510
C          4.25460       -2.22370       -1.87200
N          3.01270       -2.59490       -2.24360
O          2.20060       -1.81730       -1.59350
H          0.67130        0.98740        0.80440
H          0.43760       -0.77100        0.46210
H          0.48860        0.42290       -0.90200
H          2.95990        0.60020        0.55110
H          5.16440       -2.68040       -2.23750
