13
9214	2
C          2.56850       -1.15660        0.75290
O          2.70270        0.01740        0.04400
C          3.22730        0.06270       -1.20150
C          3.38640        1.20290       -1.95650
C          3.95170        0.76160       -3.13440
N          4.11110       -0.57420       -3.06100
H          4.51470       -1.18900       -3.80170
N          3.67330       -1.00690       -1.88930
H          2.11530       -0.93510        1.74090
H          3.56380       -1.62400        0.91320
H          1.90610       -1.86160        0.20600
H          3.12670        2.21790       -1.68720
H          4.22820        1.36880       -3.98610
