14
9222	1
N          1.48400       -0.61460        0.52650
C          2.12050        0.37790       -0.33190
C          2.78630       -0.29390       -1.49160
N          4.10660       -0.20260       -1.75540
C          4.28730       -0.94000       -2.86950
C          3.07560       -1.46490       -3.26130
N          2.13850       -1.05530       -2.39330
H          1.11940       -1.28240       -2.41540
H          1.01180       -0.11640        1.31530
H          2.21930       -1.23600        0.93600
H          2.86860        0.95760        0.25330
H          1.35100        1.07940       -0.71900
H          5.24020       -1.08320       -3.36120
H          2.88900       -2.09940       -4.11770
