14
9205	2
N          3.54470        0.06630       -1.15320
C          2.66730        0.09260        0.01200
C          3.01680       -1.02130        0.94970
C          3.43970       -0.89130        2.25310
N          3.64470       -2.12150        2.74700
H          3.96890       -2.36680        3.70850
C          3.34620       -2.97580        1.74910
N          2.95610       -2.32940        0.62990
H          3.28740        0.86380       -1.77870
H          3.38360       -0.81850       -1.68780
H          1.60740       -0.01390       -0.30730
H          2.78310        1.06870        0.53150
H          3.58850        0.02830        2.80420
H          3.41060       -4.05250        1.83360
