13
9269	1
C          3.39590       -1.19720        0.44460
N          2.66410        0.04560        0.39990
C          3.28630        1.24160       -0.03200
N          2.65330        2.42940       -0.09410
C          3.59570        3.27760       -0.54730
C          4.76490        2.57430       -0.74340
O          4.53940        1.32560       -0.41690
H          2.73510       -2.01220        0.80830
H          4.26070       -1.10130        1.13470
H          3.76050       -1.45720       -0.57170
H          1.67400        0.06370        0.68640
H          3.43900        4.33360       -0.72160
H          5.70840        2.96390       -1.10130
