10
9303	2
N          0.86360        0.02070       -0.00520
C          2.02070        0.03280       -0.00110
C          3.45690        0.04750        0.00420
C          4.26000        1.16800        0.00450
C          5.54690        0.67450        0.01040
N          5.48990       -0.67040        0.01340
H          6.30460       -1.32280        0.01790
N          4.22410       -1.05760        0.00960
H          3.95190        2.20540        0.00090
H          6.46160        1.25240        0.01250
