13
9292	1
C          1.02620        0.06480       -0.05690
C          2.30160        0.11660        0.33950
C          3.04160       -1.09350        0.75370
N          4.25930       -1.05370        1.13370
N          4.69530       -2.30000        1.45690
C          3.76670       -3.15710        1.28980
C          2.50330       -2.50580        0.79270
H          0.51580        0.97520       -0.35390
H          0.48320       -0.87430       -0.08960
H          2.80970        1.07640        0.35800
H          3.89600       -4.21260        1.48750
H          1.66920       -2.61590        1.51700
H          2.21820       -2.87310       -0.21540
