10
9350	1
C          0.96580       -0.07800       -0.07320
C          2.17120       -0.07750       -0.07080
C          3.60760       -0.07750       -0.06800
C          4.42940        1.02210       -0.07060
N          5.70530        0.59300       -0.06650
C          5.61010       -0.75470       -0.06150
O          4.35600       -1.15020       -0.06250
H         -0.09250       -0.07870       -0.07530
H          4.12940        2.06180       -0.07510
H          6.46090       -1.42270       -0.05730
