12
9328	1
C          1.46990       -0.14540        0.86610
C          2.39480        0.11550       -0.06180
C          3.02720       -0.96090       -0.84140
N          3.96470       -0.74410       -1.78570
C          4.26710       -1.97390       -2.24170
C          3.50450       -2.89520       -1.56030
O          2.75470       -2.24040       -0.70860
H          1.02050        0.66850        1.42570
H          1.15550       -1.16380        1.07400
H          2.68790        1.14460       -0.24640
H          4.99300       -2.18080       -3.01640
H          3.50840       -3.96910       -1.68940
