11
9308	1
O          1.38070       -0.44390       -0.73280
C          2.26600        0.00440       -0.02230
C          2.92270       -0.84890        0.97680
N          3.90640       -0.41640        1.79240
C          4.22880       -1.48910        2.54310
C          3.43600       -2.55210        2.17020
N          2.61890       -2.14430        1.18740
H          1.89960       -2.71790        0.69330
H          2.56870        1.04060       -0.13070
H          4.99130       -1.49260        3.31030
H          3.45270       -3.55140        2.58470
