11
9341	1
C          0.88360        0.06190       -0.03620
C          2.08700       -0.00850       -0.03440
C          3.52370       -0.09380       -0.03220
N          4.28080        0.93200       -0.02570
N          5.58570        0.55170       -0.02520
C          5.68080       -0.72010       -0.03140
C          4.32150       -1.37170       -0.03710
H         -0.17290        0.12350       -0.03780
H          6.62900       -1.24050       -0.03230
H          4.14750       -1.97700        0.87710
H          4.15080       -1.96780       -0.95800
