14
9369	1
N          1.27460       -0.29690       -0.67990
C          2.53770        0.01690       -0.02110
C          2.96550        1.41140       -0.36020
C          2.26960        2.57030       -0.10000
C          3.05250        3.59580       -0.58820
O          4.15240        3.09610       -1.11040
C          4.13300        1.78720       -0.99030
H          0.98970       -1.26510       -0.40610
H          1.41780       -0.28750       -1.71630
H          3.31670       -0.71170       -0.33830
H          2.40930       -0.05990        1.07980
H          1.30730        2.66040        0.38660
H          2.81520        4.65060       -0.55490
H          4.91820        1.12830       -1.33690
