13
9370	1
O          1.13670       -0.35530       -0.66330
C          2.42220       -0.10570       -0.16920
C          2.85970        1.25890       -0.59590
C          2.24320        2.45110       -0.29020
C          3.00100        3.43180       -0.89620
O          4.01200        2.87520       -1.52860
C          3.95800        1.57140       -1.36890
H          0.88720       -1.25820       -0.33580
H          3.13170       -0.86440       -0.56830
H          2.41740       -0.14290        0.94250
H          1.34920        2.59230        0.30280
H          2.80880        4.49590       -0.86610
H          4.67140        0.87290       -1.78590
