11
9383	1
F          1.02850        0.27510        0.12560
C          2.38790        0.04780        0.01850
C          2.85410        0.42320       -1.34950
C          2.77560        1.65960       -1.94540
N          3.30900        1.57040       -3.17860
O          3.70330        0.33910       -3.34870
C          3.45430       -0.38920       -2.28350
H          2.59230       -1.02570        0.21560
H          2.92300        0.66000        0.77410
H          2.36140        2.56320       -1.51820
H          3.68900       -1.44050       -2.18140
