9
9355	1
C          1.00400       -0.07930       -0.06050
C          2.20930       -0.07160       -0.06310
C          3.64510       -0.06320       -0.06620
N          4.39820        1.05090       -0.07040
C          5.65390        0.56050       -0.07200
N          5.64780       -0.78660       -0.06900
O          4.39660       -1.13520       -0.06540
H         -0.05430       -0.08640       -0.05820
H          6.54850        1.16850       -0.07540
