10
9329	1
O          1.49840       -0.53920        0.64900
C          2.22250        0.08560       -0.10860
C          2.89420       -0.59700       -1.21870
N          3.70810        0.02240       -2.09690
C          4.10020       -0.95730       -2.93250
C          3.51200       -2.13660       -2.53390
O          2.77830       -1.87980       -1.47910
H          2.36840        1.15010        0.04150
H          4.76780       -0.81840       -3.77210
H          3.62260       -3.10920       -2.99410
