11
9346	1
C          0.93730       -0.03250       -0.07670
C          2.14260       -0.04150       -0.07950
C          3.57970       -0.05290       -0.08280
N          4.33630        1.06310       -0.08770
C          5.60830        0.61530       -0.08950
C          5.59860       -0.76270       -0.08570
N          4.32180       -1.17490       -0.08150
H          3.98020       -2.16190       -0.07800
H         -0.12100       -0.02480       -0.07430
H          6.48200        1.25310       -0.09330
H          6.45930       -1.41820       -0.08600
