9
9335	1
O          1.34080       -0.21820        0.82590
C          2.24340        0.07370        0.05850
C          2.90190       -0.96690       -0.73640
N          3.90310       -0.73760       -1.60520
C          4.17270       -1.96920       -2.08170
N          3.36750       -2.89220       -1.52150
O          2.60000       -2.24150       -0.70040
H          2.55820        1.10780       -0.03430
H          4.93510       -2.18760       -2.81710
