11
9313	1
C          1.04520       -0.13020        0.66910
C          2.28150       -0.06820        0.16340
C          3.09990       -1.27080       -0.09010
N          4.34480       -1.23740       -0.59690
N          4.73430       -2.50280       -0.67240
N          3.76560       -3.29110       -0.22860
N          2.73930       -2.54510        0.13880
H          1.84400       -2.91530        0.52570
H          0.48620        0.78490        0.83620
H          0.57860       -1.07550        0.92020
H          2.70310        0.90460       -0.07120
