12
9371	1
F          3.33390        0.55970       -0.84520
C          2.41450        0.01230        0.03020
C          2.86920        0.22750        1.43680
C          3.09480        1.43930        2.04840
C          3.49710        1.14160        3.33410
O          3.51510       -0.16450        3.49540
C          3.14340       -0.74420        2.37560
H          2.31370       -1.07290       -0.18310
H          1.42890        0.50030       -0.12020
H          2.98090        2.42340        1.61310
H          3.75990        1.85690        4.10180
H          3.07080       -1.81460        2.23430
