9
9453	1
O          2.29490       -1.09570        0.59040
C          2.25000       -0.06370       -0.05920
C          3.04030        0.07280       -1.28770
C          3.09440        1.16160       -2.11840
N          3.93940        0.85210       -3.11690
O          4.35940       -0.36050       -2.88100
N          3.84930       -0.87140       -1.79550
H          1.62190        0.75540        0.27550
H          2.56930        2.10190       -2.01530
