10
9478	1
C          0.91380        0.08710       -0.03270
C          2.11920        0.07750       -0.03030
C          3.55550        0.06610       -0.02740
C          4.37990        1.16390       -0.02980
O          5.61470        0.72500       -0.02580
C          5.57480       -0.59090       -0.02110
N          4.30520       -1.04900       -0.02190
H         -0.14450        0.09540       -0.03480
H          4.08820        2.20610       -0.03420
H          6.44900       -1.22790       -0.01710
