10
9444	1
O          1.27950       -0.50350       -0.76870
C          2.11330        0.02520       -0.05100
C          2.80040       -0.75220        0.98860
C          3.75520       -0.29680        1.86580
N          4.12950       -1.32200        2.65460
O          3.44350       -2.36970        2.29080
C          2.63270       -2.08310        1.29700
H          2.34690        1.07640       -0.18390
H          4.15400        0.70690        1.93150
H          1.96140       -2.78600        0.82170
