12
9395	2
C          1.62490       -0.11330        0.88350
O          2.60520       -0.00700       -0.07880
C          3.11440       -1.08170       -0.72180
C          4.08790       -1.05990       -1.68670
N          4.29020       -2.33650       -2.05040
H          4.96500       -2.68650       -2.76570
N          3.47600       -3.10330       -1.33870
N          2.74500       -2.36100       -0.51760
H          1.37410        0.89920        1.26100
H          1.98670       -0.73180        1.73290
H          0.70930       -0.56990        0.44980
H          4.60610       -0.20110       -2.09240
