11
9452	1
C          2.42040       -1.11230        0.73030
C          2.26710        0.03930        0.06960
C          3.02590        0.33530       -1.15830
C          2.94900        1.47720       -1.91300
N          3.80570        1.33000       -2.93830
O          4.35810        0.15740       -2.79090
N          3.92430       -0.47850       -1.73900
H          1.84590       -1.29890        1.63180
H          3.11320       -1.87230        0.38190
H          1.56500        0.77690        0.44690
H          2.32750        2.34580       -1.74050
