11
9430	1
C          1.00070        0.08260       -0.09960
N          2.41690       -0.10950        0.10320
C          3.01560       -1.38160       -0.06760
N          4.32210       -1.63280        0.10370
N          4.45820       -2.92430       -0.15110
O          3.28900       -3.41200       -0.45790
N          2.36120       -2.50020       -0.42150
H          0.73320        1.14480        0.08310
H          0.42810       -0.55740        0.60470
H          0.72950       -0.18090       -1.14380
H          3.00360        0.69270        0.37710
