11
9437	1
N          0.84860        0.09280       -0.02070
C          2.00580        0.08580       -0.01640
C          3.44260        0.07660       -0.01090
C          4.26710        1.18120       -0.00760
C          5.56000        0.69510       -0.00270
N          5.54140       -0.65250       -0.00280
H          6.37430       -1.28180        0.00040
C          4.25210       -1.03810       -0.00790
H          3.96570        2.22060       -0.00870
H          6.46310        1.29100        0.00090
H          3.92410       -2.06970       -0.00920
