8
9482	1
C          1.17470        0.12620       -0.06370
C          2.37970        0.09770       -0.06490
C          3.81480        0.06420       -0.06640
N          4.60620        1.14790       -0.06870
N          5.84140        0.67360       -0.06960
O          5.78420       -0.62760       -0.06800
N          4.55540       -1.05560       -0.06600
H          0.11670        0.15160       -0.06270
