11
9404	1
F          2.72990        0.96430       -0.81370
C          2.23720        0.05000        0.10040
C          2.71190       -1.33140       -0.21910
C          3.52660       -1.71100       -1.26150
O          3.69550       -3.00750       -1.17560
C          3.02120       -3.43360       -0.12920
N          2.38980       -2.42100        0.50050
H          1.12800        0.07390        0.07390
H          2.58260        0.33250        1.11660
H          3.96040       -1.07730       -2.02380
H          2.97700       -4.46650        0.18880
