9
9480	1
C          0.99230        0.09470       -0.01700
C          2.19770        0.09880       -0.01940
C          3.63350        0.10380       -0.02250
N          4.38660        1.21870       -0.02700
C          5.64170        0.72940       -0.02870
O          5.62200       -0.58330       -0.02550
N          4.39320       -1.00440       -0.02160
H         -0.06600        0.09120       -0.01510
H          6.53770        1.33530       -0.03230
