12
9409	1
N          1.09820       -0.10960        0.17250
C          2.50910        0.12150       -0.11590
C          2.88100        1.53140        0.21800
C          2.80090        2.14680        1.44440
O          3.23130        3.37270        1.26720
N          3.56830        3.54780        0.02050
N          3.36490        2.42790       -0.65830
H          0.87250       -1.10520       -0.05480
H          0.51750        0.49830       -0.45040
H          2.71020       -0.07840       -1.19180
H          3.12990       -0.56800        0.49550
H          2.45680        1.72730        2.38030
