10
9431	1
C          1.72640       -0.41580        1.11550
O          2.55930       -0.15850        0.04840
C          3.11520       -1.14030       -0.69630
N          3.92900       -0.92380       -1.73980
N          4.24640       -2.12960       -2.18330
O          3.64890       -3.01630       -1.43800
N          2.93610       -2.45880       -0.50290
H          1.40060        0.54560        1.56270
H          2.26430       -1.00530        1.88880
H          0.82780       -0.97410        0.77520
