11
9419	1
C          2.02150       -0.86570        1.02310
O          2.57550       -0.15520       -0.01960
C          3.12710       -0.75280       -1.09980
N          3.67200       -0.07620       -2.12610
C          4.08170       -1.06370       -2.94620
O          3.79450       -2.23800       -2.43180
N          3.20170       -2.08370       -1.28640
H          1.63790       -0.15540        1.78400
H          2.78940       -1.51500        1.49590
H          1.17670       -1.48810        0.65750
H          4.57750       -0.90830       -3.89480
