13
9408	1
C          1.02250       -0.06670        0.14000
C          2.52110        0.16050       -0.02630
C          2.96040       -0.16480       -1.42050
C          3.54530        0.68390       -2.32970
O          3.76010       -0.02820       -3.40960
N          3.34860       -1.25050       -3.22310
N          2.84810       -1.37150       -2.00210
H          0.72180        0.18170        1.17960
H          0.76620       -1.12940       -0.05870
H          0.45500        0.58300       -0.56030
H          3.07540       -0.48380        0.68880
H          2.75210        1.22360        0.20230
H          3.78970        1.73040       -2.20490
