16
9494	1
O          0.89880        0.69470        0.46740
C          2.15810        0.13390        0.20180
C          3.13600        1.23060       -0.22140
F          2.68750        1.84700       -1.37570
C          2.67280       -0.54590        1.48150
C          1.98100       -1.86720        1.75090
C          3.46290       -1.83550        1.35380
H          0.43700        0.79910       -0.40540
H          2.07520       -0.61360       -0.62380
H          4.13670        0.79060       -0.42010
H          3.23250        1.99350        0.58090
H          2.73200        0.03090        2.43030
H          1.49230       -2.43560        0.93070
H          1.97930       -2.27730        2.78280
H          3.74760       -1.94720        0.28550
H          4.24310       -1.77080        2.14200
