18
9492	1
N          1.11250        0.26200       -0.14700
C          2.53070       -0.08170       -0.15170
C          3.21250        0.40460        1.13430
O          2.62770       -0.21490        2.25120
C          4.70410        0.03100        1.09520
C          5.70380        1.06930        0.61900
C          5.51840        0.79790        2.11800
H          0.68040       -0.09820       -1.02800
H          1.01220        1.30340       -0.14730
H          3.02050        0.38560       -1.03560
H          2.63700       -1.18620       -0.23370
H          3.10110        1.51330        1.21010
H          1.82810        0.32010        2.49700
H          5.00840       -1.03810        1.11520
H          5.12960        1.88690        0.13330
H          6.46240        0.49450        0.04610
H          5.15960        1.76650        2.52680
H          6.49580        0.38850        2.44950
