17
9490	1
N          0.97100       -0.13300        1.15040
C          2.12420       -0.13560        0.24840
C          3.42660        0.10940        1.02240
F          3.64140       -0.88830        1.95760
C          2.19940       -1.48420       -0.49340
C          1.14540       -1.60790       -1.57560
C          2.62860       -1.48810       -1.94930
H          0.90510        0.79190        1.63460
H          1.07140       -0.88230        1.87370
H          1.99990        0.70080       -0.47630
H          3.37920        1.08810        1.54520
H          4.28580        0.13320        0.31890
H          2.23810       -2.43490        0.08180
H          0.67710       -0.70550       -2.02350
H          0.84980       -2.61770       -1.93060
H          3.05710       -0.48790       -2.17450
H          3.24400       -2.40590       -2.06350
