16
9532	1
C          2.91590       -0.94870       -1.72360
C          2.75630        0.03920       -0.56660
C          3.36490       -0.46210        0.75200
F          2.76430       -1.65110        1.12830
C          4.87950       -0.67650        0.64150
C          5.74990        0.45750        1.02940
O          5.50660       -0.63910        1.89270
H          2.43120       -0.53310       -2.63210
H          2.43140       -1.91700       -1.47680
H          3.98710       -1.12260       -1.95410
H          1.67020        0.21450       -0.40720
H          3.22540        1.00790       -0.84550
H          3.14230        0.29440        1.53730
H          5.31970       -1.45960       -0.01050
H          5.30090        1.35930        1.49650
H          6.81750        0.41940        0.72920
