15
9556	1
O          1.25430        0.53200       -0.29240
N          2.49200        0.07610       -0.03520
C          3.05540       -0.96680       -0.82980
N          2.42110       -1.45750       -1.83500
C          3.21510        0.58190        1.11640
C          4.57690        1.21850        0.84750
C          3.35390        2.09770        0.99440
H          1.37650        1.24860       -0.96700
H          4.03680       -1.36110       -0.58480
H          1.48720       -1.11900       -2.10730
H          2.73810        0.43810        2.10910
H          4.90260        0.91750       -0.17080
H          5.18460        0.95820        1.73980
H          3.26450        2.60290        0.00860
H          3.55420        2.70080        1.90550
