18
9510	1
C          1.08720       -0.13380        0.00310
C          2.61260       -0.12930        0.09460
C          3.12020        0.76610        1.24480
O          2.60590        0.37200        2.49870
C          4.66790        0.85160        1.22070
C          5.37420        1.09900        2.47450
N          5.40490       -0.25360        1.85480
H          0.76830       -0.77530       -0.84540
H          0.70880        0.89640       -0.16900
H          0.63810       -0.53580        0.93570
H          3.01740        0.24990       -0.86950
H          2.97400       -1.17120        0.23780
H          2.74700        1.79460        1.04930
H          2.56620       -0.61880        2.53390
H          5.18330        1.20350        0.30180
H          4.85550        1.03470        3.45690
H          6.39410        1.53070        2.39800
H          4.76330       -0.87440        2.39540
