17
9562	1
N          0.81300        0.49590        0.30640
C          2.25120        0.55030        0.00670
C          2.56390        1.16190       -1.35020
C          1.64760        1.66220       -2.19190
C          3.07920        1.30080        1.08420
C          2.47590        2.34520        1.91150
N          2.73200        0.99630        2.48290
H          0.33160       -0.12240       -0.38660
H          0.37940        1.44580        0.27190
H          2.63140       -0.49410       -0.01520
H          3.60550        1.19250       -1.65810
H          0.58920        1.66720       -1.96340
H          1.96650        2.07920       -3.14160
H          4.18300        1.34910        0.96780
H          1.38330        2.54200        1.93800
H          3.17850        3.05840        2.39060
H          1.82110        0.48710        2.53920
