17
9537	1
C          4.00980        3.39380        0.21810
O          3.58250        2.97830       -1.06040
C          3.83070        1.59640       -1.24590
C          2.75260        1.04030       -2.17400
C          5.21170        1.40230       -1.89000
C          6.33240        1.03250       -0.99280
O          5.65640        0.07720       -1.78790
H          3.84580        4.48760        0.30170
H          5.09800        3.21890        0.36200
H          3.40740        2.91090        1.01880
H          3.74140        1.01520       -0.29450
H          2.77180        1.56680       -3.15270
H          1.75110        1.18090       -1.71440
H          2.91120       -0.04600       -2.34570
H          5.46020        1.83640       -2.88150
H          6.12650        0.78950        0.07090
H          7.36530        1.12970       -1.38610
