20
9501	1
C          2.70310       -0.83740       -1.84380
C          2.40580       -1.13290       -0.37310
N          3.28310       -0.37000        0.53980
C          2.81710       -0.55580        1.92580
C          4.68030       -0.82700        0.41680
C          5.58670        0.05360       -0.43320
C          5.63730        0.15570        1.08180
H          1.98480       -1.39110       -2.48470
H          3.72640       -1.16550       -2.11860
H          2.59560        0.24960       -2.04410
H          2.49620       -2.22780       -0.18830
H          1.34660       -0.83880       -0.19870
H          1.77370       -0.18890        2.03370
H          3.43810        0.03540        2.63150
H          2.85570       -1.62770        2.22460
H          4.95230       -1.84350        0.77880
H          4.94090        0.76820       -0.98760
H          6.24370       -0.66300       -0.96990
H          5.31490        1.19690        1.29870
H          6.66210       -0.17760        1.34950
