18
9579	1
C          0.53110        0.38240       -0.79450
C          1.82320        0.08850       -0.03020
C          2.99030        0.66880       -0.79120
C          3.98420       -0.09870       -1.24950
N          1.76030        0.73160        1.30050
C          1.12260       -0.13180        2.32270
C          2.58040        0.01840        2.30810
H          0.57030       -0.07770       -1.80540
H          0.37970        1.47830       -0.90250
H         -0.33860       -0.04350       -0.25120
H          1.92510       -1.02240        0.03090
H          3.02430        1.73990       -0.97060
H          3.98360       -1.17230       -1.08780
H          4.80870        0.35150       -1.79260
H          0.68600       -1.06420        1.90140
H          0.57370        0.50450        3.04790
H          3.18440       -0.81360        1.88260
H          2.99960        0.74960        3.03020
