16
9563	1
O          0.89990        0.36610        0.26990
C          2.29660        0.30050        0.12730
C          2.80550        1.64450       -0.32330
C          3.45740        1.79720       -1.47990
C          3.00110       -0.07140        1.45200
C          2.35610        0.26360        2.71900
N          2.36300       -1.14290        2.23540
H          0.51490        0.30390       -0.64340
H          2.55770       -0.49800       -0.60640
H          2.63700        2.51190        0.30900
H          3.64170        0.95100       -2.13460
H          3.81090        2.77950       -1.77580
H          4.10720       -0.17360        1.47440
H          1.30810        0.63570        2.75200
H          3.01360        0.32460        3.61110
H          1.41290       -1.36430        1.85930
