15
9498	1
F          2.37580       -3.32640        0.26120
C          2.15630       -2.84200       -1.01660
C          2.84220       -1.49130       -1.20170
F          2.33250       -0.58900       -0.28430
C          4.35770       -1.62820       -0.98720
C          5.25110       -1.78860       -2.20320
C          5.11790       -0.42630       -1.51020
H          1.06290       -2.72880       -1.17380
H          2.54600       -3.57300       -1.75700
H          2.60990       -1.11890       -2.22420
H          4.75460       -1.89260        0.01710
H          4.59470       -2.03300       -3.06580
H          6.04450       -2.49620       -1.88050
H          4.68190        0.23270       -2.29140
H          6.13500       -0.21540       -1.11760
