14
9593	1
N          0.99670        0.21430        0.06990
C          2.42950       -0.03060       -0.06710
C          2.90540        0.54800       -1.32950
C          3.29340        1.02450       -2.36080
C          3.15850        0.50920        1.16730
C          4.50120        1.13810        1.08550
O          3.31100        1.90710        1.13030
H          0.48870       -0.13460       -0.77730
H          0.82380        1.24380        0.14580
H          2.59940       -1.13570       -0.09070
H          3.66190        1.47590       -3.23750
H          2.83150        0.15300        2.15860
H          5.00610        1.25710        0.10270
H          5.04170        1.22360        2.05030
