16
9625	1
C          3.80560        1.56480        0.29040
O          2.92680        0.75730        0.98300
C          3.29500       -0.24260        1.83040
C          2.34260       -0.87320        2.52670
C          4.75150       -0.63410        2.02520
C          5.12840       -2.04960        1.91710
N          5.34560       -1.15700        0.76990
H          3.22620        2.30780       -0.29480
H          4.41550        0.97030       -0.41920
H          4.46550        2.10950        0.99880
H          1.30040       -0.59480        2.40380
H          2.59370       -1.66700        3.22390
H          5.46160        0.10280        2.45490
H          4.34150       -2.80520        1.69280
H          6.10520       -2.32340        2.36660
H          4.60550       -1.38880        0.06510
