13
9594	1
O          0.96650       -0.05880        0.02320
C          2.38310        0.08820        0.02940
C          2.86450        0.21750        1.38470
C          3.26120        0.32420        2.50170
C          2.99280       -1.11640       -0.62600
C          4.48340       -1.36090       -0.65460
O          3.60780       -2.12330        0.19190
H          0.62450        0.50110        0.74030
H          2.62260        0.97950       -0.55930
H          3.61860        0.40200        3.50260
H          2.41910       -1.44320       -1.48500
H          5.14950       -0.65430       -0.17600
H          4.90380       -1.86590       -1.51520
