15
9647	1
N          1.32060       -0.04930        1.43320
C          2.23490       -0.45460        0.37030
C          2.60890        0.72660       -0.47820
O          1.73290        1.34120       -1.07570
N          3.92180        1.09060       -0.58270
C          4.45150        1.54040       -1.83250
C          4.29690        2.46990       -0.58030
H          1.10270       -0.88780        2.01880
H          0.42170        0.27660        1.00820
H          1.75530       -1.23050       -0.26600
H          3.14980       -0.89250        0.82680
H          3.66920        1.55910       -2.62320
H          5.39880        0.99020       -2.00750
H          3.40570        3.13030       -0.49740
H          5.13670        2.58270        0.13600
