15
9682	1
C          1.09450       -0.16410       -0.35050
C          2.43730       -0.13650       -0.34960
C          3.12650        0.72740       -1.24760
C          3.70220        1.45670       -2.00590
C          3.26060       -0.91010        0.62080
C          3.06840       -2.41730        0.71610
C          4.32320       -1.86230        0.04870
H          0.52730        0.44990       -1.04930
H          0.53810       -0.78510        0.33930
H          4.23230        2.09060       -2.66310
H          3.54020       -0.37960        1.52660
H          2.34290       -2.89160        0.05770
H          3.19400       -2.84410        1.71480
H          4.39070       -1.98890       -1.03250
H          5.25500       -1.93920        0.61710
