13
9662	1
O          2.38460       -2.31620       -2.19550
C          2.01980       -1.38570       -1.49450
C          3.00250       -0.54070       -0.78970
O          2.60000        0.38460       -0.09940
C          4.48800       -0.80890       -0.92870
C          5.49880        0.09880       -0.23440
C          5.03450       -1.17580        0.44750
H          0.95920       -1.18050       -1.38980
H          4.81860       -1.64500       -1.58210
H          4.98680        1.06420       -0.03750
H          6.39260        0.07280       -0.89370
H          4.55600       -0.81150        1.38260
H          5.95380       -1.79560        0.51930
