16
9650	1
C          0.95810       -0.69880       -1.35080
N          2.18700       -0.34870       -0.67380
C          3.37300        0.04370       -1.36660
N          3.40090        0.12260       -2.65630
N          4.54390        0.34460       -0.60340
C          5.82480       -0.12590       -0.98130
C          5.40710        1.41580       -0.93850
H          0.18320       -0.97690       -0.60540
H          1.12940       -1.56790       -2.02070
H          0.58710        0.16650       -1.93950
H          2.21030       -0.39170        0.35620
H          2.58400       -0.08570       -3.24580
H          5.76550       -0.68610       -1.93950
H          6.27490       -0.60680       -0.08860
H          5.06450        1.91820       -1.86850
H          5.56730        2.01110       -0.01620
