15
9644	1
O          1.08880       -1.26480       -0.06610
C          2.36330       -0.83980        0.33810
C          3.16090       -0.22340       -0.78860
N          2.67450       -0.11290       -1.98050
N          4.48230        0.24130       -0.50270
C          5.56280        0.03010       -1.39310
C          4.97360        1.46640       -1.01540
H          0.50030       -0.46490       -0.04180
H          2.91670       -1.71980        0.72760
H          2.27710       -0.11290        1.17760
H          1.72850       -0.43600       -2.22660
H          5.21390       -0.48240       -2.31540
H          6.39690       -0.40220       -0.80290
H          4.21830        1.94250       -1.67710
H          5.39480        2.03490       -0.16090
