13
9686	1
C          1.12250       -0.07470        0.16470
C          2.45510       -0.12210        0.01180
C          3.07250       -1.30540       -0.51660
C          3.60000       -2.29090       -0.95840
C          3.30920        1.07970        0.29280
C          3.38460        1.50760        1.71270
O          4.45820        0.84430        1.07540
H          0.50310       -0.92980       -0.09660
H          0.62950        0.82440        0.52380
H          4.04450       -3.16460       -1.34700
H          3.43120        1.85700       -0.47930
H          2.99020        0.85460        2.51590
H          3.59850        2.58410        1.87410
