20
9712	1
N          1.98680       -2.24000       -2.78550
C          3.12090       -1.32200       -2.80170
C          2.81200       -0.08370       -1.95050
C          3.98850        0.89830       -1.88980
C          4.30730        1.48410       -3.27540
C          5.57990        2.31000       -3.23290
C          5.54270        0.99510       -4.01280
H          2.23360       -3.08230       -3.35390
H          1.16580       -1.77930       -3.24180
H          3.34110       -1.02670       -3.85130
H          4.01130       -1.84100       -2.38400
H          2.58120       -0.41540       -0.91460
H          1.91740        0.43800       -2.35630
H          4.87030        0.38890       -1.44050
H          3.70520        1.73740       -1.21810
H          3.53980        2.09330       -3.80010
H          6.35170        2.13730       -2.45230
H          5.75030        3.08520       -4.00970
H          5.86800        0.05360       -3.52050
H          5.24670        0.99480       -5.08340
