14
9703	1
C          0.96920       -0.14380       -0.05010
C          2.46140        0.03100       -0.18230
C          3.05990        0.04790       -1.38560
F          2.34530       -0.10320       -2.53270
C          3.28960        0.21320        1.06200
C          3.26820       -0.98170        1.95140
O          4.38900       -0.65100        1.16220
H          0.46280       -0.25490       -1.03170
H          0.54050        0.74280        0.46210
H          0.74810       -1.04840        0.55330
H          4.13490        0.18460       -1.45820
H          3.31760        1.15890        1.64250
H          2.90970       -1.96230        1.57210
H          3.58900       -0.86590        3.00760
