14
9768	2
O          0.96430       -1.87840       -0.22140
C          2.17970       -1.77170       -0.18640
N          2.79490       -1.36650        0.94820
O          4.13180       -1.23110        0.98150
C          4.60690       -2.30730        1.74760
C          5.05680       -3.53910        0.97080
C          6.07480       -2.50320        1.40160
H          2.76410       -2.00290       -1.07140
H          2.23460       -1.13070        1.78310
H          4.62340       -2.17330        2.85080
H          4.58340       -3.46360       -0.03110
H          4.80760       -4.38610        1.64440
H          6.48580       -2.10750        0.44790
H          6.73810       -3.04470        2.10940
