17
9725	1
O          0.80830        0.86950       -1.29740
C          1.55900        0.82180       -0.11650
C          2.61270        1.92170       -0.14060
O          3.35970        1.86540        1.05230
C          4.33060        2.88160        1.00140
C          5.41660        2.52670        2.00520
C          5.71510        2.46010        0.52170
H          0.14290        0.13630       -1.22950
H          2.06900       -0.16420       -0.03350
H          0.89210        0.98010        0.76070
H          2.08790        2.90150       -0.22810
H          3.26680        1.75120       -1.02720
H          4.01630        3.89800        1.32370
H          5.53580        1.47970        2.35820
H          6.09130        3.32190        2.38820
H          5.57180        1.50500       -0.02820
H          6.09860        3.35760       -0.00820
