16
9775	1
C          2.56140        0.91020       -0.33020
C          2.56160        0.51770        0.95280
O          3.41280       -0.42540        1.44580
C          4.36330       -1.11300        0.70950
C          5.17920       -2.10180        1.56740
C          5.34490       -1.83060        2.99250
N          4.40770       -2.89370        2.53990
H          1.85720        1.66760       -0.65920
H          3.24870        0.49330       -1.05770
H          1.85000        0.97360        1.63320
H          5.07750       -0.38890        0.26210
H          3.86760       -1.68530       -0.10400
H          5.97070       -2.71690        1.08990
H          4.76710       -1.02550        3.49860
H          6.20160       -2.32260        3.49830
H          3.43210       -2.52830        2.62760
