13
9693	1
F          0.92750        1.53710       -0.09720
C          2.28550        1.50380       -0.11980
C          2.95720        0.81790        0.81270
F          2.27080        0.14610        1.77490
C          4.46400        0.75500        0.80380
C          5.03700        2.16460        0.93750
C          5.19990        1.17140        2.07140
H          2.81600        2.03780       -0.90260
H          4.97800        0.32380       -0.08210
H          4.44350        2.98880        1.39000
H          6.07510        2.36390        0.59620
H          4.45820        1.15860        2.89950
H          6.09080        0.50880        2.10380
