15
9757	1
O          6.11970        0.15300        1.05070
C          5.11250       -0.08010        1.70240
O          4.08890       -0.80520        1.18030
C          4.10450       -1.39010       -0.07380
C          5.16530       -2.50310       -0.15750
C          4.73740       -3.76110        0.57020
C          4.84030       -3.74860       -0.96090
H          5.02520        0.31440        2.70860
H          4.31060       -0.62000       -0.84800
H          3.08960       -1.79680       -0.27470
H          6.22960       -2.28880        0.07860
H          3.66450       -3.96920        0.77060
H          5.51150       -4.48760        0.89620
H          3.93740       -3.52860       -1.56990
H          5.79650       -4.03440       -1.44910
