19
9736	1
C          0.77540        0.11020        0.30320
C          2.29140        0.14780        0.13190
C          2.95260       -1.06460        0.80460
C          4.47590       -1.09320        0.61860
C          5.16250        0.11280        1.27060
C          5.65060       -0.06000        2.65830
O          6.51390       -0.13730        1.53770
H          0.32250        0.99410       -0.19350
H          0.50830        0.13210        1.38130
H          0.35680       -0.80960       -0.15800
H          2.66950        1.09050        0.58020
H          2.52950        0.14640       -0.95400
H          2.53650       -1.99140        0.35190
H          2.71560       -1.07100        1.89140
H          4.72180       -1.10700       -0.46490
H          4.85940       -2.03990        1.06030
H          5.00700        1.14980        0.90690
H          5.61950       -1.06490        3.12950
H          5.92150        0.85120        3.23060
