16
9758	1
C          3.22450       -0.85700       -1.51330
N          3.42700       -0.01240       -0.56970
O          4.34800        0.92040       -0.69720
C          4.56660        1.82850        0.31150
C          5.70870        2.76760       -0.08940
C          5.26940        3.81310       -1.09410
C          5.63370        4.22050        0.34000
H          2.46390       -1.62140       -1.39900
H          3.80850       -0.81460       -2.42830
H          4.86480        1.28890        1.23570
H          3.62510        2.38560        0.51780
H          6.68880        2.34720       -0.40300
H          4.19970        4.09680       -1.19430
H          6.03390        4.31120       -1.72710
H          4.83360        4.30120        1.10700
H          6.68080        4.50190        0.58260
