16
9760	1
O          1.80100        1.09770        0.27850
C          2.14150       -0.06690        0.14640
C          2.84690       -0.78110        1.25820
N          4.15660       -1.24140        0.79620
C          4.82500       -1.97030        1.87390
C          4.76660       -3.48600        1.77910
C          6.00340       -2.73760        1.30110
H          1.93070       -0.58700       -0.78240
H          2.22360       -1.65240        1.55740
H          2.96280       -0.10320        2.13500
H          4.74380       -0.40930        0.55100
H          5.22700       -1.39100        2.73410
H          3.95250       -3.72200        1.06000
H          4.69040       -3.81670        2.83700
H          6.05610       -2.96650        0.21500
H          6.81330       -3.08160        1.97910
