16
9774	1
C          1.04560        0.22170        0.23960
N          2.27270       -0.05000       -0.03010
N          2.96050       -1.01940        0.66350
C          4.33730       -1.29650        0.32600
C          4.89100       -2.43560        1.19910
C          6.31910       -2.40830        1.49440
N          5.33510       -2.02770        2.54180
H          0.52870        0.99060       -0.32370
H          0.51490       -0.30870        1.02540
H          2.49590       -1.54700        1.42080
H          4.93380       -0.36450        0.44050
H          4.39410       -1.61350       -0.73680
H          4.40560       -3.43440        1.20990
H          6.93610       -1.51940        1.23200
H          6.78810       -3.36740        1.79760
H          5.33210       -0.98400        2.62240
