16
9754	2
O          2.76770       -0.10440        0.95820
C          2.20720       -0.88260        0.20060
N          2.75100       -1.19800       -1.00210
C          4.01300       -0.62950       -1.44000
C          4.40890       -1.18160       -2.81880
C          3.63250       -0.53670       -3.94870
C          5.13340       -0.26090       -3.78260
H          1.26180       -1.32600        0.49620
H          2.24630       -1.85910       -1.61250
H          4.81120       -0.90660       -0.71850
H          3.92840        0.48040       -1.45920
H          4.46390       -2.27950       -2.98440
H          3.15470        0.45790       -3.81830
H          3.55180       -1.06650       -4.92130
H          5.46580        0.63080       -3.20890
H          5.87160       -0.90960       -4.30080
