15
9767	2
N          3.35820        0.65890        0.67380
C          3.94660       -0.45670        0.90680
N          3.55370       -1.62720        0.21110
O          4.14940       -2.80150        0.47690
C          5.11920       -2.96970       -0.52300
C          5.40100       -4.45890       -0.64430
C          4.67600       -3.73790       -1.76250
H          3.64030        1.51280        1.17650
H          4.74880       -0.50550        1.63820
H          2.77610       -1.58830       -0.46610
H          6.12370       -2.53390       -0.33240
H          4.66420       -5.20330       -0.27310
H          6.35160       -4.80140       -1.10610
H          3.56530       -3.69760       -1.76640
H          5.25400       -3.27000       -2.58730
