16
9726	1
F          1.53240        0.73270        1.09420
C          1.52000       -0.54120        0.55620
C          2.80230       -1.27100        0.92920
O          2.76990       -2.56520        0.37480
C          3.96730       -3.21420        0.72540
C          4.16000       -4.37170       -0.24200
C          5.08070       -3.17130       -0.31530
H          1.43380       -0.46730       -0.54880
H          0.64080       -1.09310        0.95160
H          2.85790       -1.32100        2.04140
H          3.65890       -0.68480        0.52300
H          4.00070       -3.71190        1.71890
H          3.63640       -4.37860       -1.22220
H          4.82650       -5.21550        0.03730
H          4.83390       -2.32650       -0.99410
H          6.01130       -3.14770        0.29030
