14
9786	1
C          1.48750        0.78260        0.17450
N          2.60140        0.14710        0.19150
O          3.17340       -0.16400        1.33630
C          4.36600       -0.84610        1.35810
C          4.80310       -1.04340        2.80630
C          4.46150       -2.33610        3.44360
O          5.75370       -2.06350        2.93130
H          1.02440        1.03410       -0.77320
H          1.00180        1.07220        1.10200
H          5.14300       -0.25320        0.82950
H          4.24640       -1.82010        0.83260
H          5.03510       -0.18330        3.46900
H          4.02300       -3.15190        2.83120
H          4.54590       -2.40940        4.54770
