13
9868	1
C          1.22290        0.36830       -0.47010
N          2.47160        0.17000       -0.25220
N          2.93650        0.00180        1.02840
C          4.18540       -0.19710        1.24690
C          4.67130       -0.37790        2.65010
C          5.26710       -1.69650        2.98530
O          6.06250       -0.59620        2.63020
H          0.86740        0.49980       -1.48610
H          0.51480        0.40610        0.35320
H          4.88790       -0.23370        0.41640
H          4.47050        0.39400        3.42220
H          5.32850       -2.46570        2.18640
H          5.41290       -1.92310        4.06160
