18
9817	1
C          1.21970        1.68500       -1.05860
C          2.59320        1.25270       -0.63750
C          2.92840        1.14930        0.65790
C          4.30190        0.71250        1.08360
N          4.89770        1.76090        1.93420
C          6.35980        1.57660        2.07900
C          5.84590        2.62890        1.19700
H          0.75550        0.88260       -1.66890
H          1.29760        2.60660       -1.67190
H          0.56160        1.89290       -0.18760
H          3.32100        1.02100       -1.40990
H          2.19830        1.38220        1.42840
H          4.92740        0.44760        0.19800
H          4.19000       -0.21240        1.68820
H          6.73720        0.64080        1.60900
H          6.67310        1.90070        3.09350
H          5.84930        2.44940        0.09930
H          5.82080        3.65170        1.62730
