16
9853	1
N          1.51030       -0.57710       -0.33360
C          2.84130        0.00830       -0.22400
C          2.82460        1.12890        0.77090
N          3.13600        2.32070        0.40800
N          3.11110        3.35510        1.31350
C          4.02260        4.42230        1.21500
C          2.43230        4.55220        1.01970
H          1.54860       -1.35870       -1.02720
H          0.84920        0.14370       -0.70570
H          3.17200        0.37480       -1.22200
H          3.55780       -0.76670        0.12240
H          2.53820        0.92560        1.80020
H          4.66940        4.27770        0.32250
H          4.47890        4.56050        2.21680
H          2.00160        4.48890       -0.00350
H          1.77370        4.77440        1.88440
