15
9820	1
O          1.58980       -0.36930        2.22690
N          2.73760       -0.37990        1.58410
C          3.03170       -1.35050        0.79650
C          4.33660       -1.36170        0.06190
N          5.07240       -2.59400        0.40410
C          6.49930       -2.49550        0.02110
C          6.11800       -2.37460        1.43120
H          1.37240        0.36510        2.81640
H          2.33260       -2.17110        0.65480
H          4.90300       -0.42470        0.27910
H          4.11560       -1.36990       -1.02640
H          6.74660       -1.56200       -0.53250
H          6.86370       -3.49340       -0.30120
H          6.08580       -1.36040        1.88630
H          6.23130       -3.29320        2.04390
