17
9857	1
C          1.68510       -0.80170        0.59450
C          2.84810       -0.18120        0.38300
C          3.20030        0.33510       -0.95550
C          4.36940        0.95840       -1.16460
C          4.73990        1.49870       -2.52190
C          6.06650        1.05010       -3.12130
C          4.78290        0.35560       -3.53340
H          1.44230       -1.17500        1.58410
H          0.97130       -0.94100       -0.21220
H          3.54090       -0.05780        1.21110
H          2.50200        0.20840       -1.77960
H          5.06690        1.09610       -0.34280
H          4.09010        2.26850       -2.99080
H          6.67390        0.63400       -2.28800
H          6.42470        1.93440       -3.69000
H          4.93500       -0.69700       -3.20940
H          4.68240        0.58390       -4.61580
