15
9883	1
O          0.93680       -0.04240       -0.06090
C          2.35670       -0.04720       -0.06130
C          2.83800       -1.37630        0.23330
C          3.23470       -2.47180        0.47610
C          3.87500       -3.72380        0.75340
C          3.34000       -5.00250        0.17360
C          4.59350       -4.39870       -0.38930
H          0.66200        0.86880       -0.26440
H          2.70390        0.67080        0.68800
H          2.70220        0.28590       -1.04480
H          4.34770       -3.79340        1.72920
H          2.43850       -4.96360       -0.42630
H          3.43970       -5.90470        0.76640
H          4.53790       -3.95570       -1.37800
H          5.54150       -4.87740       -0.17390
