15
9815	1
N          0.96130        0.73960        1.23570
N          2.33190        0.63400        1.26150
C          3.05800        1.12030        0.31680
C          4.54960        0.99060        0.36900
C          5.18820        2.37870        0.39880
C          6.50030        2.52210       -0.27280
O          5.29040        2.94830       -0.87570
H          0.40520        0.34120        2.00510
H          0.47780        1.21290        0.45700
H          2.59820        1.62760       -0.52820
H          4.88470        0.40740       -0.51650
H          4.85800        0.44130        1.28490
H          4.93340        3.12840        1.17750
H          6.90000        1.68770       -0.88680
H          7.10100        3.42960       -0.05620
