14
9845	1
F          3.40640        0.87600        0.32920
C          2.38960       -0.01320        0.02430
C          2.87990       -1.43170       -0.08460
C          4.16640       -1.76790        0.09810
C          4.60960       -3.19500       -0.02510
C          5.17200       -3.70960        1.25280
O          3.90160       -4.09850        0.77880
H          1.93150        0.28640       -0.94100
H          1.61730        0.04240        0.81930
H          2.15400       -2.20500       -0.32130
H          4.91070       -1.01240        0.33060
H          5.16760       -3.59100       -0.89910
H          4.98870       -3.17110        2.20730
H          5.80130       -4.62370        1.23040
