16
9827	1
C          0.87970       -0.00230       -0.01540
C          2.34250       -0.00210       -0.01180
C          3.54780       -0.00110       -0.00840
C          5.01270        0.00190       -0.00280
N          5.50050       -1.13450        0.80030
C          6.89340       -0.92050        1.25380
C          5.78890       -0.75830        2.20420
H          0.51210        0.04030       -1.06130
H          0.50820        0.88160        0.54310
H          0.50840       -0.92860        0.46960
H          5.36270        0.99930        0.35130
H          5.36190       -0.12430       -1.04900
H          7.36120        0.00120        0.84130
H          7.42590       -1.89390        1.29160
H          5.45280        0.27070        2.45950
H          5.58310       -1.62670        2.86460
