17
9798	1
N          0.69990        1.18000       -0.45600
N          2.04270        1.34160       -0.20800
C          2.93040        0.95370       -1.05500
C          4.38650        1.14050       -0.76040
C          5.00960        2.04460       -1.83030
C          6.52390        2.00460       -1.78410
C          5.77020        1.40120       -2.97540
H          0.01150        1.49980        0.23940
H          0.36820        0.74290       -1.32950
H          2.63430        0.48550       -1.99080
H          4.86960        0.13940       -0.73030
H          4.52130        1.61900        0.23450
H          4.68970        3.10630       -1.91000
H          7.06230        1.13960       -1.34050
H          7.10240        2.84550       -2.22170
H          5.51280        0.32020       -2.97450
H          5.53800        2.03370       -3.85860
