17
9881	1
C          0.95510        0.06050       -0.02360
C          2.47500        0.05680       -0.06890
C          2.95630       -0.05400       -1.42580
C          3.35310       -0.14540       -2.54420
C          3.81690       -0.25770       -3.89530
C          3.12910       -1.23160       -4.81580
C          2.93160        0.24370       -5.00610
H          0.60420        0.14490        1.00970
H          0.54440       -0.86230       -0.44840
H          0.54440        0.90200       -0.59250
H          2.85030       -0.77680        0.53510
H          2.85020        0.97750        0.39170
H          4.88720       -0.13200       -4.03210
H          2.29510       -1.81010       -4.43410
H          3.74000       -1.76150       -5.53750
H          1.96400        0.66280       -4.75310
H          3.40830        0.71630       -5.85710
