16
9797	1
F          1.56180       -0.91780        1.62490
C          2.65530       -0.78410        0.83020
C          2.64450       -1.28440       -0.40950
C          3.83150       -1.15830       -1.32200
C          4.33430       -2.55820       -1.69450
C          3.90980       -3.15540       -3.02360
C          5.29440       -2.51550       -2.86620
H          3.53000       -0.26910        1.21550
H          1.75580       -1.79470       -0.76990
H          4.66140       -0.60450       -0.83050
H          3.52080       -0.57890       -2.21890
H          4.76790       -3.21530       -0.90960
H          3.06080       -2.54610       -3.40160
H          3.77600       -4.23850       -2.81610
H          5.28350       -1.67010       -3.58730
H          6.00470       -3.35590       -3.01640
