13
9879	1
C          0.93010        0.10620       -0.11260
C          2.13360        0.14370       -0.05530
C          3.57240        0.18840        0.01410
C          4.30460        0.24480       -1.10280
C          5.80080        0.29060       -1.02210
C          6.53600       -0.85990       -1.60700
O          6.33040        0.32720       -2.32670
H         -0.12650        0.07330       -0.16300
H          4.05480        0.17520        0.98710
H          3.81550        0.25750       -2.07500
H          6.31280        1.08370       -0.43770
H          5.94790       -1.67810       -2.07420
H          7.61130       -0.95230       -1.34970
