13
9863	1
N          0.84690       -1.23180        0.72690
C          1.98410       -1.43240        0.80270
C          3.39990       -1.68300        0.89710
C          4.26920       -0.66590        0.92780
C          5.75270       -0.91410        1.03350
C          6.39500       -1.76630        0.02660
N          6.46970       -0.30440       -0.11330
H          3.75180       -2.70930        0.94420
H          3.91120        0.35990        0.88770
H          6.28960       -0.59640        1.95130
H          5.76660       -2.21750       -0.77440
H          7.38890       -2.17150        0.30800
H          5.80770       -0.03350       -0.87920
