16
9795	1
C          0.67080       -0.46270        0.06150
C          1.85840       -0.31700       -0.08630
C          3.30400       -0.13910       -0.26580
C          4.06780       -0.69240        0.93630
N          5.51280       -0.45060        0.75250
C          6.32540       -1.32720        1.62630
C          6.22490       -1.62390        0.19390
H         -0.37160       -0.59050        0.19170
H          3.51940        0.94420       -0.38360
H          3.61860       -0.66990       -1.18940
H          3.80830       -1.77000        1.06960
H          3.73770       -0.15360        1.85180
H          5.71830       -1.94220        2.32770
H          7.23930       -0.78510        1.94690
H          5.54210       -2.43860       -0.13330
H          7.07010       -1.27470       -0.43500
