15
9794	1
C          3.96820       -2.16530        1.80430
C          3.80960       -1.25490        1.03010
C          3.61660       -0.14540        0.08610
C          4.42620        1.09050        0.48970
C          5.93280        0.80400        0.48900
C          6.68500        1.15020       -0.73930
O          6.68800        1.98020        0.40860
H          4.10800       -2.96430        2.48390
H          2.53740        0.11600        0.07290
H          3.90960       -0.47540       -0.93340
H          4.12220        1.42300        1.50590
H          4.18510        1.91350       -0.21930
H          6.39180        0.07210        1.18650
H          6.17720        1.70620       -1.55530
H          7.70680        0.73400       -0.85700
