14
9816	1
O          0.82190        0.40980        0.23500
N          2.00550       -0.01910        0.61670
C          3.00420        0.78650        0.66440
C          4.35170        0.29580        1.09820
C          4.79590        1.04740        2.35260
C          6.24810        1.29830        2.49940
O          5.34750        2.29980        2.05830
H          0.07400       -0.20150        0.20130
H          2.87860        1.83060        0.38780
H          5.06770        0.44360        0.26040
H          4.31060       -0.78970        1.33390
H          4.18210        1.06410        3.27800
H          6.93460        1.07570        1.65560
H          6.62610        1.60720        3.49590
