16
9799	1
O          0.89390       -0.15750        1.16380
N          1.85700       -0.63240        0.40400
C          3.01640       -0.87430        0.90000
C          4.11200       -1.41390        0.03350
C          4.55360       -2.78230        0.56550
C          5.86330       -3.22710       -0.05370
C          5.79600       -2.86050        1.43370
H          0.02330        0.02240        0.78450
H          3.21120       -0.68700        1.95330
H          4.94840       -0.68110        0.02850
H          3.75340       -1.53570       -1.01210
H          3.84540       -3.63900        0.53950
H          6.57670       -2.48960       -0.48040
H          6.12140       -4.30720       -0.05960
H          6.03630       -1.82510        1.75760
H          5.56580       -3.64560        2.18520
