16
9840	1
C          2.16330        0.84900       -0.92290
N          3.39740        0.49120       -0.27350
N          3.55250       -0.77120        0.25180
C          4.65080       -1.12980        0.82200
C          4.81660       -2.51410        1.40780
C          3.68210       -3.44500        1.42660
N          4.69410       -3.56010        0.36360
H          2.21420        1.89840       -1.28310
H          1.32100        0.75250       -0.20630
H          1.98880        0.17740       -1.78950
H          4.15800        1.18610       -0.20850
H          5.47990       -0.43200        0.90170
H          5.73960       -2.73950        1.98140
H          2.69960       -3.12440        1.01340
H          3.77700       -4.29950        2.12840
H          4.26720       -3.18140       -0.51450
