17
9813	1
C          0.80700        0.22370        0.32970
C          2.20250       -0.08730        0.78340
C          3.16110        0.85190        0.79630
C          4.55930        0.54010        1.25110
C          4.92260        1.43880        2.43230
C          4.75580        0.86870        3.78940
O          6.01760        0.94240        3.14990
H          0.55130       -0.42310       -0.53500
H          0.69410        1.28600        0.02400
H          0.09880        0.01620        1.15850
H          2.42660       -1.10000        1.10640
H          2.93430        1.86450        0.47280
H          5.25980        0.74790        0.41530
H          4.66550       -0.53480        1.52180
H          4.96350        2.54440        2.33630
H          4.49970       -0.20550        3.90550
H          4.77400        1.56660        4.65190
