17
9824	1
C          0.99310       -0.14690        0.01530
C          2.45530       -0.10510        0.00720
C          3.66030       -0.06980        0.00000
C          5.12580       -0.02570       -0.01040
C          5.60840        1.42350       -0.15040
C          6.89860        1.67490       -0.90740
C          5.54040        1.93710       -1.57430
H          0.59650        0.66270       -0.63130
H          0.62470       -0.00570        1.05220
H          0.64890       -1.12900       -0.36900
H          5.49820       -0.67580       -0.83170
H          5.49930       -0.43330        0.95170
H          5.24900        2.20560        0.55380
H          7.39890        0.69420       -1.05910
H          7.40560        2.49390       -0.35380
H          5.51370        1.23270       -2.43320
H          5.52210        3.03270       -1.75370
