14
9855	1
F          3.74320       -1.22650       -0.70460
C          3.03090       -0.13100       -0.25520
C          2.84580       -0.22970        1.22490
N          3.30210        0.69030        1.99650
N          3.13120        0.60890        3.35820
C          4.15890        0.99860        4.23760
C          2.73910        1.73760        4.10230
H          2.03710       -0.11320       -0.74850
H          3.58190        0.79560       -0.52510
H          2.31870       -1.08510        1.64070
H          5.02520        1.37560        3.65160
H          4.29560        0.17740        4.97090
H          2.64480        2.61300        3.42340
H          1.88340        1.43100        4.73820
