14
9862	1
O          0.95260       -0.18110        0.30610
C          2.16960       -0.14860        0.22720
C          2.82590        0.87690       -0.60100
C          4.16100        0.92940       -0.70070
C          4.83660        1.98220       -1.54170
C          5.82360        1.52580       -2.52210
N          4.46410        1.86400       -2.97290
H          2.76040       -0.87970        0.77080
H          2.21320        1.59820       -1.13570
H          4.77810        0.21490       -0.16250
H          4.75300        3.05340       -1.26260
H          6.01850        0.43340       -2.61810
H          6.53880        2.29530       -2.87930
H          3.97110        0.96020       -3.16780
