16
9811	1
N          0.95250       -0.90160       -0.38700
N          1.83930        0.14310       -0.27370
C          3.00920        0.08830       -0.80710
C          3.95260        1.24430       -0.67350
C          4.32680        1.76010       -2.07090
C          3.49650        2.82020       -2.63160
N          4.84890        3.13620       -2.10210
H          1.20030       -1.75680       -0.90760
H          0.02260       -0.82940        0.04870
H          3.32300       -0.79280       -1.36180
H          4.87350        0.89890       -0.15850
H          3.48570        2.04150       -0.05200
H          4.85090        1.10590       -2.79970
H          2.72680        3.32390       -2.00420
H          3.51940        2.94480       -3.73410
H          4.73220        3.59240       -1.16740
