17
9923	1
N          1.09350       -0.02240       -0.17420
C          2.55190       -0.08860       -0.03000
C          3.39060       -0.88330       -1.06870
N          2.57270       -1.68180       -1.98740
C          3.25170        0.63760       -1.16570
C          4.56060        1.36250       -0.83510
O          4.29110        2.68040       -0.44410
H          0.67240       -0.76630        0.42590
H          0.74850       -0.14230       -1.15180
H          2.97690        0.24540        0.94110
H          4.12720       -1.44060       -0.45160
H          2.04300       -1.10790       -2.68200
H          1.93290       -2.31180       -1.45140
H          2.63800        0.97990       -2.02680
H          5.23440        1.35200       -1.72120
H          5.11200        0.85950       -0.01000
H          4.05740        3.18190       -1.26820
