18
9911	1
C          0.93110        0.09760       -0.08120
C          2.45960        0.03240        0.02020
C          3.30080       -0.78710       -0.98700
N          2.48380       -1.59550       -1.89750
C          3.17110        0.74020       -1.11260
C          4.46120        1.48440       -0.75730
O          4.16650        2.80790       -0.40700
H          0.49240       -0.72650        0.51750
H          0.54880        0.02840       -1.11920
H          0.58530        1.06350        0.34160
H          2.93830        0.20030        1.00960
H          4.05150       -1.32880       -0.37220
H          1.91020       -1.02770       -2.55960
H          1.87720       -2.24750       -1.35080
H          2.57590        1.05880       -1.99560
H          5.16360        1.45970       -1.62030
H          4.99120        1.00760        0.09580
H          3.97040        3.28910       -1.25280
