16
9916	1
C          0.85810        0.13020        0.05180
C          2.38760        0.04600        0.09020
C          3.13440       -0.72550       -1.01400
O          2.23420       -1.35910       -1.87750
C          3.06340        0.80890       -1.02410
C          4.42100        1.44270       -0.72470
F          4.23910        2.77290       -0.39780
H          0.43400       -0.70990        0.63960
H          0.44480        0.09040       -0.97850
H          0.53670        1.08580        0.51600
H          2.91490        0.16190        1.06230
H          3.85110       -1.37350       -0.46540
H          2.65580       -1.30650       -2.77300
H          2.46410        1.16860       -1.88910
H          5.06010        1.37960       -1.63010
H          4.94790        0.93650        0.11320
