13
9899	1
C          0.89460       -0.02520        0.01320
C          2.23130       -0.05560       -0.00800
C          2.93430       -1.05620       -0.70170
C          3.52940       -1.90330       -1.28900
C          4.30980       -2.89920       -1.95300
C          4.10340       -4.34980       -1.61100
O          3.54360       -3.76830       -2.79500
H          0.36690        0.75450        0.55210
H          0.29800       -0.77060       -0.50470
H          2.80070        0.70490        0.51780
H          5.29000       -2.60200       -2.30630
H          3.41940       -4.61040       -0.81200
H          4.93980       -5.02470       -1.72900
