19
9955	1
C          1.79410        0.61990       -0.38090
O          2.20200       -0.32350        0.57890
C          3.05140       -1.24440       -0.06160
C          3.08500       -2.57780        0.71110
C          2.16050       -2.77710        1.91680
C          2.35280       -2.50210       -0.60520
C          3.06080       -3.04980       -1.84270
H          1.13020        1.35730        0.11500
H          1.20220        0.14310       -1.19430
H          2.66350        1.18440       -0.78710
H          4.12540       -0.96540       -0.13560
H          4.01950       -3.17620        0.63870
H          1.21470       -2.19940        1.84160
H          2.69540       -2.46830        2.83860
H          1.90170       -3.85310        2.00030
H          1.24920       -2.36680       -0.61600
H          4.16660       -3.06240       -1.72860
H          2.80200       -2.42210       -2.72090
H          2.71180       -4.08620       -2.03010
