13
9943	1
O          2.83510        1.04160        0.37260
C          2.25200       -0.16550       -0.03050
C          2.73590       -1.28740        0.89510
C          2.91440       -2.69380        0.34400
F          2.41530       -2.77560       -0.94580
C          4.12690       -1.77130        0.54230
F          4.87170       -2.28420        1.58880
H          2.43390        1.74650       -0.19930
H          2.51290       -0.36360       -1.09450
H          1.14660       -0.09880        0.07220
H          2.63660       -1.17060        1.99640
H          2.49390       -3.36290        1.12460
H          4.59800       -1.69150       -0.46080
