12
9897	1
O          1.10780        0.11360       -0.09200
C          2.32600        0.09520       -0.03810
C          2.98680       -0.44690        1.11840
C          3.54110       -0.90310        2.08720
C          4.21490       -1.46340        3.27070
C          4.85670       -2.76280        3.08400
N          5.68210       -1.53710        3.11320
H          2.91120        0.48660       -0.86280
H          3.94360       -1.13750        4.29630
H          4.89520       -3.22300        2.07000
H          5.06030       -3.34990        4.00350
H          5.96440       -1.31860        2.12790
