14
9978	1
C          0.94190       -0.00710       -0.08810
C          2.47240       -0.01360       -0.05940
C          3.24070       -0.58390       -1.23970
F          2.37240       -1.19190       -2.13190
C          3.07360        0.94110       -1.07420
C          4.40800        1.53510       -0.73590
O          5.35150        1.41300       -1.50120
H          0.56620       -0.92050        0.41750
H          0.52770        0.02730       -1.11850
H          0.57180        0.88170        0.46430
H          2.99710        0.05310        0.91930
H          4.03710       -1.20440       -0.77520
H          2.55630        1.27960       -1.99780
H          4.53230        2.09150        0.18710
