12
9985	1
O          1.07080        0.18820       -0.23600
C          2.46290        0.13490       -0.09310
C          3.10950       -0.76670       -1.15660
O          2.34990       -1.13280       -2.27650
C          3.25710        0.74950       -1.22730
C          4.50870        1.32130       -0.71620
N          5.49370        1.77430       -0.31200
H          0.73070       -0.65780        0.15700
H          2.90220       -0.05980        0.91110
H          4.11820       -1.22200       -1.03910
H          1.58050       -1.65550       -1.93930
H          2.57830        1.36470       -1.85690
