16
9952	1
C          3.17290       -0.69370        0.69190
N          2.29100        0.33020        0.13730
C          3.04510        1.14390       -0.83000
C          2.18940        2.29200       -1.36490
O          1.01220        2.59380       -0.67250
C          3.36770        2.58330       -0.43660
O          4.56020        2.93810       -1.07340
H          2.60290       -1.32530        1.40550
H          4.02400       -0.22510        1.23430
H          3.56190       -1.35060       -0.11610
H          1.92450        0.89930        0.93640
H          3.40980        0.63030       -1.74620
H          2.38690        2.86180       -2.29840
H          0.33760        1.95650       -1.02080
H          3.36630        2.60940        0.67410
H          4.47140        3.90640       -1.26600
