15
9941	1
C          2.29910        1.00360       -1.02380
C          2.40070       -0.05830        0.06390
C          3.18650       -1.27230       -0.45590
C          3.06960       -2.49060        0.44520
F          2.04980       -2.51650        1.38120
C          2.40980       -2.48370       -0.93990
F          3.13650       -3.07180       -1.96040
H          1.74720        1.88500       -0.63470
H          1.75360        0.60040       -1.90370
H          3.31290        1.32960       -1.34090
H          1.37200       -0.33470        0.38410
H          2.93660        0.36950        0.93820
H          4.25220       -1.15240       -0.74820
H          3.78630       -3.33860        0.42280
H          1.37200       -2.14460       -1.14600
