11
9904	1
C          0.99240        0.10880       -0.10580
C          2.19630        0.05680       -0.07710
C          3.60620       -0.00450       -0.04300
C          4.81020       -0.05730       -0.01350
C          6.27350       -0.12230        0.02460
C          6.92680       -0.80520       -1.11920
O          6.80690        0.59540       -1.05880
H         -0.06460        0.15440       -0.13070
H          6.83990        0.12050        0.94740
H          6.29660       -1.17680       -1.95530
H          7.99770       -1.07380       -1.00860
