18
9949	1
C          2.86160        1.10440       -0.51970
N          2.24530       -0.10050        0.03620
C          3.25310       -1.16810        0.16360
C          2.78850       -2.62580        0.04130
N          1.34170       -2.76640       -0.06510
C          3.45230       -1.93250       -1.14770
N          4.79860       -2.45350       -1.38680
H          2.11160        1.92260       -0.55010
H          3.22280        0.91830       -1.55570
H          3.71080        1.43780        0.11530
H          1.44550       -0.36660       -0.58450
H          4.20880       -0.94510        0.68680
H          3.35020       -3.28460        0.73920
H          0.94440       -2.76900        0.90150
H          1.14450       -3.69880       -0.49260
H          2.74810       -1.86930       -2.00560
H          5.33690       -2.59270       -0.50030
H          5.31160       -1.74710       -1.96040
