15
9893	1
C          1.03360       -0.05610       -0.04190
C          2.37050       -0.04140       -0.07140
C          3.07350        0.50230       -1.16090
C          3.66850        0.96260       -2.08310
C          4.37780        1.52250       -3.19570
C          3.62790        1.77840       -4.47670
C          4.05930        2.93230       -3.61980
H          0.50190       -0.47820        0.80400
H          0.44120        0.35040       -0.85640
H          2.93910       -0.45430        0.75620
H          5.41300        1.20760       -3.29320
H          2.56960        1.54480       -4.51790
H          4.15260        1.61280       -5.41060
H          3.29260        3.47890       -3.08170
H          4.87710        3.55070       -3.97140
