16
9934	1
N          2.63530        0.83850       -1.20320
C          2.40780        0.00150       -0.03020
C          3.27170       -1.26570       -0.11680
C          2.80750       -2.55590        0.54850
O          1.65410       -2.32860        1.30790
C          2.64730       -2.34790       -0.97180
O          3.55330       -3.18790       -1.62390
H          2.07270        1.71390       -1.10120
H          2.29170        0.33700       -2.05440
H          1.32170       -0.22830        0.05440
H          2.71440        0.56410        0.87710
H          4.36210       -1.16890       -0.31500
H          3.70580       -2.91780        1.09360
H          1.13690       -3.17220        1.24880
H          1.56660       -2.48660       -1.19140
H          3.85310       -2.67620       -2.41840
