16
10020	1
C         -1.74490        0.68130       -0.14350
C         -0.36180        1.26300        0.10320
C          0.48010        0.09740       -0.35530
C         -0.36610       -1.16390       -0.29930
N         -1.65610       -0.72920        0.25340
C          1.89930        0.17050       -0.80170
O          1.57140       -0.03080        0.53900
H         -1.97330        0.72110       -1.23420
H         -2.54310        1.23250        0.39930
H         -0.24200        1.40220        1.20240
H         -0.17900        2.22180       -0.42810
H          0.07960       -1.99060        0.29820
H         -0.52490       -1.51570       -1.34170
H         -1.58420       -0.75600        1.29850
H          2.32520        1.18450       -0.94570
H          2.33310       -0.75410       -1.23460
