18
10072	1
C          0.28770       -1.24710       -1.76150
C         -0.17020       -1.88320       -0.46120
C          1.30020       -1.55300       -0.66740
N          1.66420       -0.41790        0.17880
C          3.07500       -0.11520       -0.04470
C          3.37120        1.00240       -1.03010
C          3.36950        1.28290        0.46730
H          0.25290       -0.14070       -1.86720
H          0.60650       -1.88400       -2.61310
H         -0.55070       -2.88360       -0.75830
H         -0.85810       -1.13610       -0.00960
H          1.82800       -2.51880       -0.50500
H          1.55050       -0.69430        1.18260
H          3.83800       -0.78230        0.41540
H          2.44280        1.15080       -1.62160
H          4.30630        0.67430       -1.53210
H          2.55080        2.02240        0.59980
H          4.41750        1.57290        0.69390
