15
10041	1
O          1.06770        0.28800       -0.45160
C          2.42420        0.07100       -0.18670
C          2.92910       -0.96630       -1.18590
C          3.44520        0.45660       -1.25390
C          2.78070       -0.43220        1.21290
C          3.72720        0.38480        2.01940
O          2.33690        0.50760        2.16260
H          0.92860        1.25970       -0.31270
H          2.40110       -1.10890       -2.15320
H          3.83830       -1.56920       -0.97120
H          2.93510        1.19830       -1.90540
H          4.37880        0.72300       -0.71610
H          2.45310       -1.43620        1.55680
H          4.12340        1.32990        1.59330
H          4.14550       -0.08500        2.93330
