17
10022	1
C         -2.76310        0.33770        0.52250
C         -2.29740        0.31090       -0.92570
C         -1.28130        0.20270        0.21900
C         -0.53630       -1.14070        0.13240
C          0.85770       -0.68320       -0.08900
C          0.98550        0.68360       -0.07330
C         -0.30010        1.38630        0.16140
H         -3.04220       -0.61010        1.03080
H         -2.86280        1.30900        1.05290
H         -2.62520        1.30030       -1.31110
H         -2.80210       -0.59160       -1.33290
H         -0.86960       -1.78820       -0.70780
H         -0.59040       -1.69450        1.09290
H          1.69730       -1.35280       -0.22130
H          1.93490        1.18880       -0.19210
H         -0.50580        2.10340       -0.66310
H         -0.25260        1.91860        1.13440
