15
10038	1
F          1.05330        0.64070       -0.30430
C          2.34500        0.18590       -0.10080
C          2.55140       -0.97150       -1.07480
C          3.36440        0.29580       -1.22990
C          2.68550       -0.34970        1.29960
C          3.87180        0.17660        1.98140
N          2.53910        0.69940        2.33300
H          1.95000       -1.02180       -2.00780
H          3.31690       -1.75480       -0.88190
H          2.98990        1.11970       -1.87430
H          4.36580        0.36050       -0.75660
H          2.20120       -1.27610        1.67620
H          4.48360        0.97730        1.50890
H          4.25780       -0.43410        2.82380
H          2.44500        1.64480        1.89140
