18
10035	1
C          1.03540        0.31170       -0.14130
C          2.53340        0.04070        0.05180
C          2.98670       -1.03940       -0.92930
C          3.52060        0.38330       -1.05900
C          2.99160       -0.37350        1.46670
C          4.17850        0.24270        2.07070
N          2.83550        0.72600        2.44360
H          0.78070        0.51860       -1.20320
H          0.73760        1.19450        0.46090
H          0.44520       -0.56540        0.20000
H          2.44830       -1.20740       -1.88690
H          3.89060       -1.64910       -0.71100
H          3.01720        1.09790       -1.74480
H          4.51480        0.60490       -0.62380
H          2.59180       -1.30720        1.91630
H          4.73790        1.05980        1.56470
H          4.61680       -0.29860        2.93450
H          2.68620        1.63880        1.95170
