17
10075	1
C         -0.10130       -0.05700       -0.99610
C         -0.35450       -1.50170       -0.54740
C          1.05970       -0.96480       -0.63500
C          1.70150       -0.81880        0.74950
C          2.98430        0.00090        0.62560
C          2.89210        1.44690        0.93350
O          3.40350        0.50700        1.86170
H         -0.12360        0.76350       -0.24700
H          0.04220        0.16900       -2.07430
H         -0.80440       -1.99160       -1.43670
H         -0.95350       -1.39390        0.38220
H          1.59680       -1.51500       -1.43800
H          1.96520       -1.82870        1.12890
H          1.00120       -0.35720        1.48280
H          3.84280       -0.34440        0.01170
H          1.95160        1.85900        1.35600
H          3.73190        2.09980        0.61790
