14
10026	1
C         -2.72230        0.46570        0.52970
C         -2.25920        0.30600       -0.90610
C         -1.26000        0.17310        0.24250
C         -0.51080       -1.16860        0.11730
C          0.85630       -0.60500       -0.10920
N          0.86350        0.66890       -0.10500
O         -0.32910        1.16900        0.09510
H         -3.06720       -0.42090        1.10320
H         -2.71680        1.46890        1.00720
H         -2.45590        1.30090       -1.36010
H         -2.83750       -0.57180       -1.26670
H         -0.82410       -1.80170       -0.74150
H         -0.53080       -1.73840        1.06950
H          1.75300       -1.19310       -0.25050
