13
10005	1
O          1.11480        0.08600       -0.18950
C          2.50670        0.00620       -0.04330
C          3.26190       -0.76570       -1.13580
O          2.51940       -1.33060       -2.19590
C          3.24440        0.76210       -1.15060
C          4.47590        1.44200       -0.71490
C          5.50360        1.99870       -0.41070
H          0.73570       -0.53850        0.48160
H          2.96300       -0.01220        0.97030
H          4.20450       -1.26140       -0.81690
H          1.58660       -0.99670       -2.19310
H          2.59700        1.24390       -1.91180
H          6.39100        2.53250       -0.18180
