19
10031	1
C          0.94840        0.46800       -0.22890
C          2.44520        0.15410       -0.06500
C          2.80240       -1.01880       -0.98050
C          3.40130        0.35750       -1.23600
C          2.97040       -0.18110        1.34760
C          4.04050        0.69820        1.98800
C          2.58390        0.94280        2.31160
H          0.66300        0.59560       -1.29560
H          0.70010        1.41120        0.29890
H          0.33980       -0.35350        0.20540
H          2.21930       -1.22740       -1.90350
H          3.68100       -1.66050       -0.75080
H          2.90910        1.04900       -1.95290
H          4.42930        0.53980       -0.86360
H          2.57860       -1.09500        1.84470
H          4.51350        1.33050        1.21000
H          4.64120        0.00770        2.61720
H          2.40880        1.98040        1.95330
H          2.50660        0.72550        3.39830
