18
10087	1
C         -1.44840        0.73710        0.13590
C         -1.47900       -0.78310       -0.07100
N         -0.26880       -1.46660        0.41460
C          0.87680       -1.18830       -0.46530
C          1.66350        0.03950        0.01870
O          0.90970        1.19210        0.34830
C         -0.21750        1.42030       -0.46880
H         -1.49150        0.98030        1.22020
H         -2.36370        1.14750       -0.34320
H         -1.64140       -1.00980       -1.14970
H         -2.36590       -1.17850        0.47110
H         -0.46910       -2.49180        0.33970
H          0.55890       -1.06610       -1.52490
H          1.58040       -2.05090       -0.46060
H          2.46010        0.29590       -0.71200
H          2.16660       -0.26680        0.96070
H         -0.05560        1.17380       -1.54210
H         -0.39840        2.51570       -0.44180
