16
10008	1
C          0.99100       -0.04110        0.03270
C          2.51940       -0.12290        0.07790
C          3.25900       -0.91190       -0.92470
C          2.51380       -1.58060       -1.99990
C          1.90900       -2.12690       -2.88850
N          3.12720        0.56570       -1.07940
C          4.33450        1.30180       -0.66510
H          0.56390       -0.81060        0.70840
H          0.57440       -0.18310       -0.98610
H          0.67510        0.96040        0.39190
H          3.03190        0.06040        1.04980
H          4.30840       -1.23260       -0.74800
H          1.37670       -2.60690       -3.66700
H          4.85280        1.67630       -1.57170
H          5.06150        0.70190       -0.07220
H          4.03700        2.18290       -0.05760
