11
10158	1
O          0.87450       -1.22950       -0.00020
C         -0.45690       -1.49670       -0.00110
N         -1.41040       -0.63320       -0.00210
C         -1.37960        0.78080       -0.00240
C         -0.28980        1.54340       -0.00060
C          1.11130        1.11350        0.00180
N          1.55400       -0.09400        0.00170
H         -0.73960       -2.54340       -0.00120
H         -2.33800        1.29120       -0.00400
H         -0.44900        2.61830       -0.00080
H          1.84790        1.91010        0.00360
