15
10089	1
C         -1.43270        0.74920        0.14170
C         -1.43260       -0.75130       -0.14290
O         -0.27430       -1.35830        0.39600
C          0.84870       -1.10030       -0.43670
O          1.62590       -0.00200        0.00560
C          0.84750        1.09660        0.44490
O         -0.27180        1.35540       -0.39240
H         -1.54580        0.95020        1.23200
H         -2.32570        1.20470       -0.33580
H         -1.54120       -0.95230       -1.23370
H         -2.32780       -1.20630        0.33080
H          0.61280       -0.98990       -1.52080
H          1.49220       -2.00280       -0.39180
H          1.49180        1.99870        0.40290
H          0.60700        0.98610        1.52810
