17
10167	1
C         -1.51080        0.78570       -0.01790
C         -1.51760       -0.77240        0.02150
N         -0.26160       -1.29150        0.61540
C          0.81570       -0.76990       -0.22450
C          2.10180       -0.02890        0.01560
C          0.82970        0.71830        0.27430
N         -0.23180        1.31550       -0.54930
H         -1.63880        1.16150        1.02190
H         -2.37100        1.16420       -0.61020
H         -1.62050       -1.15500       -1.02000
H         -2.39830       -1.13290        0.59470
H         -0.26390       -2.33350        0.53000
H          0.70150       -0.94180       -1.32170
H          2.62570        0.30740       -0.90400
H          2.63320       -0.36860        0.92980
H          0.70220        0.85140        1.37560
H         -0.12720        1.11600       -1.57270
