16
10172	1
C         -1.49050        0.78920        0.16740
C         -1.38200       -0.71280       -0.10120
C         -0.00090       -1.24630        0.32970
N          0.99710       -1.05120       -0.77380
C          1.10890       -0.28170        0.46290
C          0.76930        1.22300        0.32160
O         -0.40790        1.46820       -0.43190
H         -1.53060        0.99030        1.26420
H         -2.44570        1.17180       -0.24950
H         -1.55840       -0.93900       -1.17560
H         -2.17760       -1.22350        0.48160
H          0.08880       -2.32830        0.56050
H          0.63300       -0.44310       -1.54320
H          1.99140       -0.60360        1.05380
H          1.62170        1.72040       -0.18610
H          0.68600        1.68900        1.32860
