15
10181	2
C         -0.24940        1.33510        0.68160
N         -1.51190        0.67860        0.32090
C         -1.54380       -0.48470       -0.24970
N         -0.33350       -1.20600       -0.42950
C          0.80920       -0.74640        0.31550
C          2.07240       -0.28760       -0.26500
C          0.95190        0.75490       -0.12280
H         -0.09290        1.31040        1.78220
H         -0.33510        2.40310        0.39050
H         -2.48640       -0.90030       -0.58890
H         -0.29350       -2.06240       -1.00030
H          0.76010       -0.83180        1.42650
H          2.25430       -0.68080       -1.28920
H          2.86260       -0.23420        0.51280
H          0.72410        0.95560       -1.19570
