15
10180	1
C         -0.22540        1.37690        0.59080
C         -1.53540        0.68370        0.21070
N         -1.52520       -0.47480       -0.37120
N         -0.33740       -1.15930       -0.52690
C          0.78410       -0.76000        0.28720
C          2.09590       -0.31460       -0.19730
C          0.98440        0.73700       -0.14370
H         -0.09950        1.41900        1.69410
H         -0.28670        2.42180        0.21920
H         -2.48130        1.17110        0.42110
H         -0.27920       -1.97980       -1.14630
H          0.66170       -0.84560        1.39210
H          2.35790       -0.69570       -1.20860
H          2.83020       -0.25290        0.63300
H          0.81540        0.92100       -1.23130
