16
10130	1
C         -0.47240        1.52070       -0.41630
N         -1.34370        0.58730        0.30420
C         -1.32060       -0.74180       -0.29020
C         -0.28550       -1.56260        0.39870
C          1.00630       -1.21760        0.46690
C          1.61410        0.02580       -0.07420
C          0.99910        1.16090       -0.47280
H         -0.53880        2.49600        0.11230
H         -0.84240        1.68330       -1.45340
H         -2.31660        0.96580        0.22100
H         -1.13230       -0.70250       -1.38760
H         -2.30210       -1.24330       -0.13840
H         -0.59480       -2.50070        0.85140
H          1.68430       -1.92250        0.93910
H          2.69780        0.01500       -0.14770
H          1.64330        1.94030       -0.87060
