14
10196	1
C          0.65530       -1.22520        0.44800
O         -0.52320       -1.38020       -0.26240
N         -1.52970       -0.52680       -0.14070
C         -1.32910        0.70330        0.19620
C          0.06840        1.21510        0.44680
C          0.87600        1.07990       -0.85990
C          1.20210        0.20950        0.34210
H          1.40910       -1.95430        0.08610
H          0.45370       -1.43450        1.52070
H         -2.17250        1.37800        0.29370
H          0.20860        2.27530        0.74620
H          1.76650        1.73050       -0.99450
H          0.59800        0.37730       -1.67480
H          2.04740        0.51870        0.99390
