12
10274	2
C          1.39990       -0.52530       -0.01780
N          2.43100        0.52490        0.10900
C          3.22490       -0.31810        0.85840
C          4.33520       -0.72800        1.54560
N          4.09020       -2.00120        1.94490
H          4.73190       -2.61110        2.49780
N          2.88970       -2.37610        1.50210
C          2.39100       -1.32570        0.82930
H          1.26740       -0.88930       -1.05960
H          0.46180       -0.28890        0.52890
H          2.82390        1.14680       -0.61240
H          5.23970       -0.16900        1.74390
