12
10268	2
C          1.25800       -0.64870        0.00210
C          2.56400        0.30000        0.12430
C          3.05270       -0.77350        1.01630
N          3.94150       -1.35560        1.82690
H          4.88210       -1.00480        2.11190
N          3.38880       -2.50210        2.21660
N          2.18260       -2.63130        1.66110
C          2.01860       -1.52380        0.91900
H          1.12130       -1.15020       -0.98020
H          0.34270       -0.26990        0.50570
H          2.42010        1.23990        0.69950
H          3.19860        0.35970       -0.78620
