13
10246	1
C          1.65750       -0.19660        0.14750
N          0.80170       -1.36550        0.39220
C         -0.18530       -0.79800       -0.53840
C         -1.40520       -0.26300        0.13400
N         -1.29010        0.97540        0.36200
O         -0.14390        1.44300       -0.06450
C          0.61910        0.49260       -0.72260
H          2.53220       -0.51830       -0.46070
H          1.93330        0.36560        1.06870
H          0.45050       -1.31030        1.37840
H         -0.30800       -1.37480       -1.48110
H         -2.25960       -0.84500        0.45280
H          0.89560        0.75510       -1.76640
