17
10232	1
C         -1.69200        0.86760        0.09720
C         -1.46970       -0.61180       -0.18460
C         -0.06340       -0.87350        0.38090
C          1.04970       -1.27610       -0.57610
O          1.61690        0.01630       -0.59210
C          0.62410        0.48120        0.28540
C         -0.37080        1.43590       -0.37710
H         -1.79930        1.03100        1.19430
H         -2.57590        1.29210       -0.42460
H         -1.47120       -0.75250       -1.28990
H         -2.24550       -1.27840        0.24680
H          0.01270       -1.18720        1.44600
H          0.68980       -1.56480       -1.58780
H          1.75160       -2.00250       -0.11110
H          1.00230        0.80750        1.28160
H         -0.33460        1.31040       -1.48490
H         -0.19150        2.50590       -0.14220
