12
10272	1
C          1.70070       -0.45690        0.81600
N          2.25380        0.33550       -0.29240
C          2.91120        1.09760        0.62450
N          3.79080        2.08470        0.77390
N          3.94840        2.18840        2.08620
H          4.57120        2.88390        2.55310
C          3.18610        1.24200        2.70300
C          2.52640        0.49970        1.73050
H          2.04520       -1.51420        0.81120
H          0.60230       -0.33160        0.93490
H          2.71310        0.01840       -1.15830
H          3.13820        1.09160        3.77330
