12
10206	1
C          0.65180       -1.25830        0.52880
O         -0.56240       -1.44990       -0.11030
N         -1.53970       -0.55530       -0.06260
C         -1.29460        0.70170        0.09700
C          0.11970        1.19250        0.23400
O          0.84780        0.74800       -0.90370
C          1.18250        0.16450        0.32280
H          1.38450       -2.00400        0.15710
H          0.51460       -1.41310        1.62010
H         -2.11360        1.41240        0.10780
H          0.33270        2.27490        0.35550
H          2.15960        0.50380        0.72510
