16
10376	1
C          1.21210        0.10390        0.36230
C          2.47380       -0.10740       -0.02330
C          3.03900       -1.46010       -0.24220
N          4.41400       -1.24100       -0.69190
C          4.70100        0.19540       -0.53940
C          4.07040        1.03180       -1.64760
C          3.43290        0.99470       -0.26650
H          0.54100       -0.73280        0.53110
H          0.84410        1.11450        0.51030
H          2.45660       -2.01340       -1.01170
H          3.03700       -2.02790        0.71220
H          4.52320       -1.51670       -1.69630
H          5.76420        0.51590       -0.54130
H          3.35440        0.57470       -2.36560
H          4.40600        2.08130       -1.78520
H          3.72220        1.65110        0.58130
