12
10383	2
O          1.37940        0.15870        0.48340
C          2.50820        0.01740        0.04100
N          3.01620       -1.16920       -0.27290
O          4.25190       -1.12290       -0.79080
C          4.63570        0.23370       -0.58250
C          4.05380        1.17840       -1.61330
C          3.44180        1.11830       -0.20520
H          2.49860       -2.05380       -0.16500
H          5.70090        0.49100       -0.40200
H          3.27670        0.82070       -2.32380
H          4.46470        2.20580       -1.70210
H          3.81580        1.68890        0.67120
