14
10327	1
N          1.11270       -0.08450       -0.60250
C          2.26180       -0.06000        0.29490
C          3.45200        0.72060       -0.23800
O          3.48330        1.03500       -1.59130
C          3.57880       -0.03970       -2.37140
C          3.57720       -1.17660       -1.64070
C          3.46650       -0.85190       -0.18980
H          0.55900        0.78660       -0.44040
H          0.51520       -0.89940       -0.33710
H          2.09160       -0.01700        1.39150
H          4.30140        1.07650        0.38470
H          3.64330        0.00130       -3.45000
H          3.64090       -2.17230       -2.05780
H          4.27890       -1.15230        0.50670
