14
10362	1
F          1.11300        0.22750        0.16070
C          2.47660        0.00210        0.04670
C          2.77130       -1.47360       -0.19040
C          2.53260       -1.68930       -1.67870
C          3.06680       -0.39720       -2.28900
O          2.04570        0.56140       -2.22520
C          3.01980        0.65870       -1.22160
H          2.98400        0.34880        0.97180
H          2.24100       -2.17910        0.48360
H          3.86660       -1.60600       -0.02660
H          1.44870       -1.79160       -1.91080
H          3.07190       -2.59590       -2.02640
H          3.44080       -0.32410       -3.33090
H          3.36120        1.71330       -1.26740
