13
10381	1
O          1.41210        0.13290        0.52980
C          2.52520       -0.06450        0.06980
C          3.06880       -1.41280       -0.17410
O          4.32230       -1.21280       -0.78610
C          4.64670        0.15560       -0.60860
C          4.03020        1.01080       -1.69780
C          3.44740        1.02030       -0.28040
H          2.40180       -1.95500       -0.87700
H          3.17640       -1.97150        0.77980
H          5.71230        0.45270       -0.51050
H          3.23490        0.60140       -2.35850
H          4.39880        2.04660       -1.85290
H          3.81950        1.67080        0.53930
