15
10361	1
O          1.04350        0.12970       -0.03200
C          2.43130       -0.07280       -0.11520
C          2.77310       -1.53960       -0.37360
C          2.58530       -1.73540       -1.87170
C          3.10450       -0.41960       -2.44240
O          2.05450        0.50840       -2.40130
C          2.98960        0.61850       -1.36200
H          0.75130       -0.27130        0.82780
H          2.92620        0.28720        0.81510
H          2.24920       -2.27540        0.27260
H          3.86680       -1.64370       -0.18190
H          1.51220       -1.86230       -2.13880
H          3.15940       -2.62100       -2.21770
H          3.50950       -0.32010       -3.47040
H          3.30810        1.68110       -1.38230
