13
10331	1
N          0.84820       -0.06480       -0.48560
C          2.08930       -0.00210        0.27770
C          3.18740        0.80620       -0.39110
O          3.06860        1.06420       -1.74690
N          3.09950       -0.00980       -2.48960
C          3.20320       -1.05940       -1.79580
C          3.24980       -0.76340       -0.33640
H          0.30020        0.80080       -0.28440
H          0.29960       -0.88280       -0.14000
H          2.04100        0.05340        1.38610
H          4.10430        1.18040        0.11460
H          3.24120       -2.04820       -2.23170
H          4.14820       -1.03850        0.25790
