15
10336	1
C          1.08440       -0.16100       -0.44180
C          2.33400        0.19660        0.37630
C          3.51640        1.09160       -0.29380
C          3.61660        1.21260       -1.84820
C          3.72950       -0.21350       -2.27550
N          3.66520       -0.99750       -1.28540
N          3.54860       -0.31370       -0.11230
H          0.24540        0.48060       -0.10220
H          0.81410       -1.22060       -0.25190
H          1.19700       -0.01240       -1.53260
H          2.29140        0.07920        1.47900
H          4.38530        1.45350        0.29500
H          4.51280        1.79630       -2.14570
H          2.70010        1.66640       -2.27940
H          3.82040       -0.55960       -3.29610
