12
10393	2
O          1.29400        0.15010        0.78560
C          2.33790       -0.04530        0.18410
N          2.70750       -1.25710       -0.23610
C          3.95450       -1.22680       -0.94100
C          4.37600        0.25370       -0.86380
O          3.48290        1.08850       -1.57480
C          3.28430        1.02860       -0.18870
H          2.15500       -2.11330       -0.07990
H          3.83080       -1.56620       -1.99150
H          4.69500       -1.86260       -0.41190
H          5.38750        0.60950       -1.15010
H          3.75250        1.76540        0.49640
