18
10453	1
N          1.02510       -0.05980        0.14430
C          2.49280       -0.06070        0.02900
C          3.05730       -1.03830       -1.01110
C          4.56140       -0.81910       -0.82980
C          4.56320        0.71520       -0.80810
C          3.05880        0.94390       -0.98350
C          2.75450       -0.02930       -2.12350
H          0.74700       -0.86050        0.75470
H          0.50420       -0.16550       -0.75010
H          2.93640       -0.05910        1.05410
H          2.74390       -2.10230       -1.06460
H          5.13540       -1.23080       -1.68960
H          4.92050       -1.25670        0.12810
H          5.14040        1.14920       -1.65480
H          4.92380        1.12380        0.16210
H          2.75010        2.01050       -1.00690
H          3.40610       -0.01640       -3.02870
H          1.69310       -0.01450       -2.44170
