11
10434	1
O          1.02240        0.17100       -0.64470
C          2.18500        0.23910       -0.28150
N          2.96320        1.39630       -0.40660
C          4.10520        1.12140        0.07070
N          4.19660       -0.21070        0.53750
C          4.33710       -1.29640       -0.34330
C          2.95250       -0.87850        0.36500
H          4.90310        1.84680        0.15320
H          4.95740       -2.08440        0.13100
H          4.49920       -0.96680       -1.39360
H          2.64150       -1.24330        1.36610
