16
10461	1
N          1.03530       -0.06840        0.13040
C          2.50580       -0.11180        0.05500
C          3.07490       -1.06230       -0.99490
C          4.54790       -0.76130       -0.78720
O          4.52590        0.65360       -0.74500
C          3.14100        0.87830       -0.92590
C          2.80130       -0.04240       -2.09370
H          0.72820       -0.79440        0.81610
H          0.54080       -0.28510       -0.75990
H          2.93440       -0.11770        1.08650
H          2.79770       -2.13540       -1.06680
H          5.16660       -1.12760       -1.63710
H          4.92360       -1.18590        0.17070
H          2.87470        1.95630       -0.92960
H          3.47220       -0.01310       -2.98370
H          1.74410        0.01290       -2.42200
