13
10391	1
O          1.42280        0.28160        0.72280
C          2.46040        0.01950        0.13660
C          2.93710       -1.37230       -0.05870
C          4.13980       -1.19640       -0.98380
C          4.53720        0.27680       -0.86710
O          3.66080        1.02740       -1.69510
C          3.39180        1.07310       -0.33390
H          2.19350       -2.05800       -0.51840
H          3.23780       -1.74150        0.94550
H          3.84650       -1.37620       -2.04290
H          4.94870       -1.90860       -0.71630
H          5.53450        0.62750       -1.20470
H          3.79410        1.89940        0.28770
