13
10401	1
O          1.93210        0.37080        0.82620
C          2.80130        0.02550        0.04200
N          2.87680       -1.20000       -0.45940
C          4.09190       -1.34340       -1.20910
C          4.77890        0.05060       -1.04530
C          3.98170        1.28860       -1.63720
N          3.81740        0.81930       -0.31290
H          2.19080       -1.95080       -0.29160
H          3.85780       -1.56230       -2.27250
H          4.72660       -2.14390       -0.77350
H          5.71700        0.13650       -0.45750
H          3.09420        1.07550       -2.27450
H          4.47010        2.28450       -1.61900
