16
10469	1
N          1.11130       -0.08620        0.08550
C          2.57920       -0.09090        0.05370
C          3.13230       -1.02070       -1.00450
C          4.63880       -0.85240       -0.83760
C          4.63770        0.68000       -0.83320
C          3.13080        0.84700       -0.99720
O          2.86370       -0.08330       -2.01570
H          0.78940       -0.95820        0.56400
H          0.68340       -0.06400       -0.86940
H          3.00460       -0.09220        1.08500
H          2.71350       -2.04680       -1.08720
H          5.17930       -1.27030       -1.71500
H          4.99900       -1.29320        0.11840
H          5.17500        1.10360       -1.70990
H          4.99920        1.11650        0.12420
H          2.71030        1.87290       -1.07310
