15
10459	1
F          1.09910       -0.01100       -0.06740
C          2.48910       -0.04030       -0.06540
C          3.04870       -1.00430       -1.10470
C          4.53860       -0.73200       -0.94620
N          4.53980        0.73370       -0.88700
C          3.09890        0.95510       -1.05010
C          2.70560        0.00830       -2.18710
H          2.88640       -0.06740        0.97500
H          2.74370       -2.07060       -1.16280
H          5.12600       -1.11660       -1.81190
H          4.93570       -1.16390       -0.00110
H          5.04600        1.13200       -1.71340
H          2.81080        2.02790       -1.05520
H          3.31180        0.02480       -3.12150
H          1.61410        0.03510       -2.41840
