12
10443	1
F          1.09760       -0.05440       -0.12000
C          2.43710        0.12130        0.01650
C          3.05620        1.24220       -0.23190
O          4.36700        1.13010       -0.01700
C          4.72880       -0.12780        0.44390
C          4.51050       -1.29730       -0.50000
C          3.39180       -0.93450        0.46040
H          2.57720        2.15060       -0.57200
H          5.17100       -0.19580        1.46200
H          5.05690       -2.21720       -0.20560
H          4.32450       -1.01580       -1.55910
H          3.29680       -1.39680        1.46710
