12
10433	1
N          0.95250        0.04340       -0.39650
C          2.20520        0.10330       -0.12710
N          2.97470        1.26530       -0.27620
C          4.15510        0.96880        0.07870
N          4.28310       -0.38220        0.47790
C          4.33590       -1.42970       -0.45700
C          3.02530       -1.04180        0.39530
H          0.45020        0.87140       -0.74830
H          4.96090        1.68910        0.11660
H          4.99740       -2.23450       -0.07690
H          4.39950       -1.05680       -1.50300
H          2.80840       -1.44970        1.40470
