15
10487	1
C          0.92580       -0.06210       -0.35660
C          2.43030        0.13960       -0.08260
C          3.50050       -0.73300       -0.73010
O          4.41080        0.34800       -0.60280
C          3.26970        1.15360       -0.85280
C          3.01320        0.75090       -2.25830
C          3.17670       -0.58650       -2.17130
H          0.58230       -0.98090        0.16250
H          0.68250       -0.16170       -1.43410
H          0.36380        0.80580        0.04660
H          2.61680        0.23360        1.01270
H          3.74470       -1.72590       -0.29660
H          3.26170        2.22300       -0.55350
H          2.77120        1.34200       -3.13120
H          3.09730       -1.32480       -2.95770
