14
10440	1
F          1.02130       -0.14060       -0.19690
C          2.34140        0.10900        0.00090
C          2.88780        1.28230       -0.23920
C          4.33740        1.30000        0.05870
C          4.60490       -0.11480        0.59730
C          4.46420       -1.21770       -0.44300
C          3.30090       -0.92410        0.49080
H          2.33360        2.13490       -0.60940
H          4.53580        2.05080        0.85190
H          4.94600        1.52490       -0.84290
H          5.56930       -0.36330        1.08870
H          4.82190       -2.23730       -0.18650
H          4.21130       -0.94260       -1.49090
H          3.16960       -1.34800        1.50840
