13
10437	1
N          1.22150       -0.12690        0.40290
C          2.45450        0.20400        0.27310
C          2.94170        1.46190       -0.20200
C          4.31010        1.40440       -0.08010
C          4.76120        0.06890        0.49520
C          4.33840       -1.26200       -0.30740
N          3.52730       -0.62370        0.64880
H          0.46880        0.52410        0.13460
H          2.36730        2.30200       -0.56960
H          4.97380        2.21450       -0.35050
H          5.26930        0.04940        1.48170
H          4.65620       -2.24930        0.08620
H          3.93720       -1.14140       -1.33830
