16
10557	1
C          1.01640       -0.11550       -0.05180
C          2.54310        0.01290       -0.02890
N          3.20400       -0.38530       -1.28820
C          3.13400        1.03970       -0.88270
C          4.51730        1.52950       -0.46580
C          5.10490        2.61440       -1.28890
O          4.45690        2.87220       -0.06340
H          0.73630       -1.17980        0.09060
H          0.57060        0.24890       -1.00270
H          0.59200        0.47950        0.78310
H          3.11990       -0.34470        0.85090
H          2.49220       -0.53940       -2.04000
H          2.51430        1.62090       -1.60400
H          5.17770        0.95390        0.21770
H          4.49860        3.06770       -2.10140
H          6.18590        2.82960       -1.16110
