16
10559	1
C          1.01070       -0.17850        0.07650
C          2.53170       -0.07840        0.04640
O          3.02590       -0.15030       -1.26800
C          3.11240        1.10580       -0.62640
C          4.57180        1.42280       -0.28610
C          5.16730        2.55730       -0.98810
N          4.73070        2.71030        0.41700
H          0.71140       -1.23950       -0.05050
H          0.53530        0.42340       -0.72810
H          0.64200        0.18290        1.05860
H          3.16100       -0.67530        0.74040
H          2.45420        1.83660       -1.14460
H          5.25500        0.65990        0.14500
H          4.53960        3.19760       -1.64840
H          6.27600        2.59640       -1.01870
H          3.82600        3.23750        0.41920
