12
10493	1
O          1.10210       -0.06150       -0.49240
C          2.31960        0.03420       -0.50400
C          3.25210       -0.65350        0.38850
N          3.36980        0.63160        1.13100
C          3.09800        1.23520       -0.20240
C          4.29290        0.77320       -0.95730
C          4.39920       -0.53020       -0.54960
H          3.02690       -1.57160        0.97360
H          4.32440        0.83390        1.52520
H          2.71290        2.27770       -0.23090
H          4.92350        1.30560       -1.65400
H          5.13290       -1.26340       -0.85040
