15
10533	1
C         -1.49270        0.49910        0.77650
C         -1.14310       -0.37250       -0.40120
O         -0.16370       -1.30640       -0.04020
C          1.05640       -0.74020       -0.44850
C          1.69090        0.12830        0.64030
C          0.87770        0.77130       -0.46440
C         -0.62100        1.04810       -0.36510
H         -0.86600        0.54730        1.68800
H         -2.41960        1.10900        0.73520
H         -2.09360       -0.72230       -0.85740
H          1.37540       -0.95580       -1.49170
H          2.78990        0.06820        0.49670
H          1.23900       -0.13620        1.61770
H          1.53220        1.38040       -1.12440
H         -1.08040        1.45150       -1.29250
