16
10530	1
C         -0.84490        0.00310       -1.21000
C         -0.68380        1.06000       -0.13640
C         -1.33780        0.09220        0.84230
C         -0.50540       -0.87480        0.00980
N          0.86480       -0.55610        0.48470
C          1.80390        0.11940       -0.42800
C          0.79040        0.92090        0.29480
H         -0.20940        0.03220       -2.11610
H         -1.90700       -0.11130       -1.54000
H         -1.06320        2.09510       -0.26720
H         -2.43820       -0.01220        0.67560
H         -1.10880        0.18490        1.92920
H         -0.73230       -1.96150        0.02000
H          1.72600       -0.28990       -1.45220
H          2.81310        0.15530        0.03200
H          1.08950        1.39620        1.25450
