15
10514	1
C          0.27410        1.01380        0.03100
O          0.94510       -0.20130       -0.21310
C         -0.28020       -0.89570       -0.26780
C         -1.04590        0.30000        0.24500
C         -2.28720        0.67970       -0.57940
C         -2.56840        2.12470       -0.73760
O         -2.00160        1.34350       -1.77740
H          0.32540        1.62960       -0.89430
H          0.63810        1.52720        0.94730
H         -0.32100       -1.76670        0.42200
H         -0.49700       -1.13780       -1.33380
H         -1.23500        0.17230        1.33400
H         -3.16080       -0.00060       -0.65800
H         -1.80680        2.87480       -0.43860
H         -3.58150        2.42850       -1.07330
