16
10524	1
C         -0.89650       -0.00010       -1.25730
C         -0.60230        0.97760       -0.12360
C         -1.29560       -0.00020        0.81910
C         -0.60240       -0.97790       -0.12390
C          0.87450       -0.74660        0.28950
N          1.83340        0.00080       -0.55330
C          0.87400        0.74570        0.29060
H         -0.32140       -0.00030       -2.20150
H         -1.97830        0.00010       -1.54030
H         -0.92190        2.03940       -0.17630
H         -2.40680       -0.00010        0.69790
H         -1.02520       -0.00040        1.90140
H         -0.92230       -2.03970       -0.17670
H          1.27720       -1.13800        1.24960
H          1.58770        0.00290       -1.55930
H          1.27700        1.13670        1.25080
