17
10545	1
O          1.07080        0.14870       -0.06330
C          2.45470       -0.03270        0.01790
C          3.12250       -0.60550       -1.21600
C          3.11480        0.90540       -0.99010
C          4.57020        1.32670       -0.74310
C          4.64630        2.83390       -0.97930
C          4.86640        2.28020        0.41020
H          0.68200       -0.74720        0.10710
H          2.94230        0.13950        1.00040
H          2.30960       -1.06700       -1.81800
H          3.92330       -1.25300       -0.79760
H          2.61180        1.27400       -1.91140
H          5.35600        0.93920       -1.42830
H          3.75200        3.48500       -0.86470
H          5.62110        3.29630       -1.24490
H          4.01010        2.22350        1.11510
H          5.88950        2.00250        0.74140
