15
10527	1
C         -0.90730        0.00010       -1.25070
C         -0.62580        0.98390       -0.11540
C         -1.30160        0.00010        0.83380
C         -0.62600       -0.98380       -0.11540
C          0.85500       -0.74790        0.23540
O          1.63720       -0.00020       -0.67060
C          0.85520        0.74770        0.23540
H         -0.25100        0.00000       -2.14960
H         -1.98150        0.00020       -1.55720
H         -0.93900        2.04730       -0.17330
H         -2.41340        0.00020        0.72480
H         -1.01010        0.00000        1.91020
H         -0.93940       -2.04720       -0.17330
H          1.36190       -1.14980        1.13950
H          1.36210        1.14950        1.13950
