15
10560	1
C          0.86480       -0.18370       -0.05880
C          2.38310       -0.05790       -0.00400
O          2.95960       -0.25260       -1.26950
C          2.99150        1.06480       -0.75720
C          4.42330        1.43010       -0.38360
C          5.07240        2.47220       -1.21530
O          4.49110        2.76760        0.03490
H          0.58820       -1.25720       -0.11180
H          0.43290        0.33850       -0.93990
H          0.43030        0.25270        0.86420
H          2.97330       -0.57390        0.78300
H          2.37420        1.71820       -1.41140
H          5.05450        0.79030        0.26950
H          4.47900        2.98450       -2.00180
H          6.17160        2.59280       -1.12380
