17
10551	1
C          1.03070        0.05990       -0.15120
C          2.55430       -0.02300       -0.04510
C          3.30190       -0.82850       -1.08360
C          3.24320        0.71060       -1.18730
C          4.67090        1.22890       -0.99350
C          4.74830        2.67930       -0.69390
O          4.93280        1.69530        0.30210
H          0.57990       -0.71910        0.49770
H          0.66690       -0.09060       -1.19090
H          0.69260        1.05660        0.20160
H          3.04430        0.17660        0.93170
H          2.55170       -1.43770       -1.63250
H          4.11070       -1.33450       -0.51220
H          2.77800        0.87360       -2.18310
H          5.55570        0.79060       -1.50230
H          3.82570        3.23680       -0.42600
H          5.72280        3.19390       -0.82400
