17
10518	1
C          0.29030       -1.75150       -1.09370
C          0.60020       -0.32150       -1.01450
N          0.12150       -1.03530        0.19080
C          1.23180       -1.32750        1.11520
C          1.30440       -0.36840        2.29000
N          1.24690       -1.45930        3.26440
C          0.88000       -2.36060        2.17070
H          1.13960       -2.47110       -1.09060
H         -0.70760       -2.01200       -1.50350
H         -0.19160        0.36900       -1.37210
H          1.67050       -0.02170       -0.95570
H          2.24960       -1.51970        0.69910
H          0.39000        0.26730        2.37590
H          2.25400        0.20650        2.33830
H          0.42970       -1.32450        3.90540
H         -0.21560       -2.57530        2.20540
H          1.51260       -3.27310        2.13000
