8
000032.xyz
C 0.73851900 -0.39488500 0.02373700
C -0.73851900 -0.39488500 0.02373700
N 0.00000000 0.84954800 -0.17204600
H 1.27687200 -0.74725400 -0.84737300
H 1.24491700 -0.55689200 0.96856600
H -1.24491700 -0.55689200 0.96856600
H -1.27687200 -0.74725400 -0.84737300
H 0.00000000 1.40007600 0.67708800
