8
000017.xyz
C -1.12284400 -0.45232000 0.00000000
C 0.00000000 0.55399700 0.00000000
F 1.22528400 -0.09823600 0.00000000
H -2.08331400 0.06680500 0.00000000
H -1.07279600 -1.08565100 0.88614800
H -1.07279600 -1.08565100 -0.88614800
H -0.03079400 1.18927800 0.88871600
H -0.03079400 1.18927800 -0.88871600
