9
000021.xyz
C -1.13157300 -0.50438600 0.00000000
C 0.00000000 0.47222300 0.00000000
C 1.28413600 0.15079200 0.00000000
H -1.76744600 -0.36277500 0.87769900
H -0.77012300 -1.53345800 0.00000000
H -1.76744600 -0.36277500 -0.87769900
H -0.27655100 1.52346500 0.00000000
H 1.60843500 -0.88455600 0.00000000
H 2.05774900 0.90832600 0.00000000
