12
65	1
C          0.93790       -0.04970        0.08300
C          2.43540       -0.04350        0.08820
C          3.12620       -0.92390       -0.64990
C          4.62610       -0.93470       -0.65890
H          0.55730        0.74940        0.75300
H          0.56140       -1.03030        0.44350
H          0.56140        0.13410       -0.94540
H          2.95630        0.68720        0.70080
H          2.59740       -1.65140       -1.25980
H          5.05300       -0.14850        0.00020
H          4.98640       -0.76340       -1.69450
H          4.98640       -1.92450       -0.30960
