11
4	1
C          0.98550        0.02450       -0.10280
C          2.51170        0.00230       -0.09680
C          3.04190       -1.33730        0.40690
F          2.97880        0.22760       -1.37990
H          0.59350       -0.13600        0.92420
H          0.58920       -0.76910       -0.77170
H          0.62760        1.01010       -0.46840
H          2.88370        0.81250        0.56680
H          2.69440       -2.16320       -0.24990
H          2.69150       -1.52530        1.44420
H          4.15230       -1.32410        0.40520
