7
38	1
F          0.92600        0.01930        0.27780
C          2.28800        0.06930        0.04900
C          2.73050       -1.20190       -0.60040
O          3.26050       -1.18190       -1.69970
H          2.81750        0.19140        1.01660
H          2.51590        0.94250       -0.59910
H          2.58060       -2.14860       -0.09200
