6
57	1
O          1.15940       -0.54290        0.41880
C          2.11800        0.02840       -0.07420
C          2.80560        1.08970        0.67150
O          3.76420        1.66100        0.17850
H          2.45990       -0.25140       -1.06560
H          2.46370        1.36950        1.66290
