11
1	1
C          0.97380        0.02170        0.08600
C          2.49920        0.03890        0.10330
C          3.03060        1.04660        1.11800
H          0.61840       -0.71950       -0.66040
H          0.57950        1.02270       -0.19110
H          0.57950       -0.26230        1.08510
H          2.87330        0.30680       -0.90840
H          2.87330       -0.97460        0.36420
H          2.68240        2.07050        0.86400
H          4.14090        1.03560        1.10690
H          2.68240        0.78550        2.14010
