9
51	1
N          1.04090       -0.04230        0.05610
C          2.49870       -0.04720        0.07060
C          3.00150       -1.15560       -0.74750
C          3.41340       -2.06550       -1.42240
H          0.70720        0.73730        0.66780
H          0.68920       -0.93840        0.46630
H          2.86970       -0.16130        1.11220
H          2.87810        0.91080       -0.34470
H          3.76820       -2.86620       -2.01640
