7
9	1
C          0.92870       -0.06010       -0.03990
C          2.42190       -0.06490       -0.03610
O          3.03020       -0.89790        0.61580
H          0.55670        0.76350       -0.68450
H          0.55140        0.08940        0.99340
H          0.55140       -1.02720       -0.43320
H          2.97000        0.67270       -0.61340
