12
8	1
C          1.04170       -0.05220       -0.04700
C          2.54690       -0.05780       -0.05290
C          3.30660       -0.95730       -0.99070
C          3.21680        0.74540        0.78460
H          0.62820       -0.76510       -0.79030
H          0.66910        0.96450       -0.29400
H          0.66910       -0.34140        0.95850
H          2.62130       -1.56170       -1.62080
H          3.94790       -1.65180       -0.40770
H          3.94790       -0.34590       -1.66020
H          2.68410        1.40060        1.46770
H          4.30290        0.75360        0.79310
