11
81	2
C          0.93410       -0.05360        0.17760
C          2.43180       -0.07560        0.05030
N          3.02810       -1.14180       -0.35190
N          3.19210        1.08090        0.37360
O          4.52930        1.06720        0.27110
H          0.60910       -0.82950        0.90220
H          0.47200       -0.26040       -0.81050
H          0.57880        0.93560        0.53470
H          2.49820       -1.99290       -0.59230
H          2.71980        1.93540        0.70390
H          4.71920        1.43180       -0.63110
