10
68	1
C          0.88960       -0.02850        0.03700
C          2.38310       -0.02820        0.04970
N          3.03460       -0.04580       -1.05950
N          4.40940       -0.04620       -1.08060
H          0.50440       -0.01200        1.07800
H          0.51790       -0.94260       -0.47180
H          0.51790        0.86900       -0.50060
H          2.90930       -0.01310        1.00100
H          4.90490       -0.06050       -1.98280
H          4.95590       -0.03230       -0.20570
