11
79	1
C          0.34370        1.03590       -0.09680
C          0.96140       -0.33030        0.11650
N         -0.33110       -0.99950       -0.04800
C         -0.96810        0.30940        0.11450
H          0.43060        1.29490       -1.17550
H          0.61200        1.84730        0.61180
H          1.31490       -0.44690        1.16890
H          1.72110       -0.61660       -0.64150
H         -0.53440       -1.60750        0.78000
H         -1.32310        0.42790        1.16620
H         -1.74720        0.53310       -0.64490
