9
41	1
F          1.85950       -0.81220        1.11280
C          2.35050       -0.00480        0.10440
F          1.33660        0.26490       -0.79520
C          2.84150        1.28330        0.69700
C          4.11280        1.67500        0.56980
H          3.16110       -0.55000       -0.42550
H          2.14360        1.91140        1.24280
H          4.83420        1.06900        0.03000
H          4.43690        2.61230        1.01010
