10
73	1
O          1.12910        0.05320       -0.06130
C          2.51760       -0.09940        0.00240
C          3.17630       -0.71210       -1.22660
C          3.13330        0.79450       -1.06150
H          0.76110       -0.83330        0.18630
H          3.02220        0.21300        0.94140
H          2.36380       -1.23360       -1.77750
H          4.02860       -1.29100       -0.81210
H          2.52500        1.14800       -1.92170
H          4.19950        1.09430       -0.97540
