14
20	1
C          0.89560       -0.17360        0.02290
C          2.41730       -0.05430       -0.01610
C          2.86400        1.24770       -0.69480
C          4.38610        1.36520       -0.70150
F          2.40400        1.28210       -2.00080
H          0.61000       -1.12130        0.52620
H          0.47850       -0.18090       -1.00640
H          0.45660        0.67550        0.58890
H          2.83370       -0.92620       -0.56650
H          2.80000       -0.07800        1.02780
H          2.44360        2.11660       -0.14290
H          4.83760        0.51840       -1.26140
H          4.77790        1.36400        0.33800
H          4.68580        2.31580       -1.19120
