11
86	1
N          3.05990       -1.25650        0.37220
N          2.38500       -0.05910        0.15440
C          3.06110        1.19730        0.19890
N          2.32930        2.39250       -0.01090
N          4.32800        1.26470        0.42140
H          2.37530       -2.04150        0.27980
H          3.40880       -1.25570        1.35800
H          1.37460       -0.07670       -0.05480
H          1.31570        2.35790       -0.19150
H          2.80450        3.30660        0.01700
H          4.90590        0.42650        0.57450
