13
60	1
C          0.86850        0.00390        0.06400
C          2.38270        0.04580       -0.12430
C          2.99630        1.27030        0.50400
C          2.90690        1.50400        1.98420
O          3.59390        2.07280       -0.19730
H          0.45930       -0.90150       -0.43170
H          0.39980        0.90200       -0.39200
H          0.60410       -0.04250        1.14090
H          2.59820        0.04040       -1.21550
H          2.83770       -0.86290        0.32460
H          3.37660        0.65560        2.52410
H          1.84700        1.59630        2.29720
H          3.43500        2.44050        2.26430
