9
70	2
N          1.04650       -0.38290       -0.08640
C          2.27350        0.19130       -0.04930
O          2.69560        0.77620       -1.03530
C          3.13290        0.12490        1.18480
F          2.51490       -0.56920        2.21000
H          0.47370       -0.32600       -0.94170
H          0.66560       -0.88220        0.72980
H          3.35240        1.15530        1.53520
H          4.08970       -0.38170        0.93910
