12
52	1
C          1.06730       -0.07000        0.07150
C          2.59440       -0.05300        0.04070
N          3.10870       -1.41230       -0.10010
C          3.07570        0.76070       -1.05080
C          3.47240        1.43140       -1.95040
H          0.69560       -0.67810        0.90370
H          0.64640       -0.47410       -0.85730
H          0.66940        0.94380        0.19660
H          2.95840        0.35270        0.99120
H          2.78090       -1.79980       -0.98400
H          2.71480       -1.99980        0.63070
H          3.83600        2.02720       -2.75530
