12
80	2
C          0.94200       -0.27530       -0.09060
C          2.41990       -0.00760       -0.02850
N          3.18350       -0.39690       -0.98830
N          2.97390        0.67750        1.09250
N          4.33480        0.95400        1.17080
H          0.76150       -1.36910       -0.14660
H          0.51250        0.21210       -0.99090
H          0.42590        0.12380        0.80740
H          2.80260       -0.89400       -1.80730
H          2.35920        0.97890        1.86240
H          4.59960        1.54670        0.35120
H          4.85990        0.05060        1.13250
