6
67	1
F          0.93210        0.10290        0.04340
C          2.29050        0.09790        0.04350
C          2.95530       -1.05590        0.05390
F          4.31370       -1.06090        0.05390
H          2.83060        1.03920        0.03500
H          2.41520       -1.99720        0.06230
