9
40	1
C          1.03940       -0.00150        0.04050
C          2.56300        0.04020        0.05040
F          3.04030       -0.11890       -1.23760
C          3.03980        1.31990        0.58630
N          3.41960        2.32830        1.00850
H          0.69630       -0.97710       -0.36410
H          0.63230        0.81160       -0.59860
H          0.64220        0.11280        1.07220
H          2.95190       -0.78370        0.68520
