10
76	1
C          1.04380        0.03910        0.00070
C          2.56310       -0.05940        0.08360
C          3.24050       -0.88380       -0.94330
O          3.18640        0.52950       -1.02280
H          0.59230       -0.70640        0.68740
H          0.66790       -0.14690       -1.02880
H          0.72600        1.05470        0.31560
H          3.11170        0.15190        1.02520
H          2.65620       -1.28980       -1.79580
H          4.29770       -1.17010       -0.76560
