15
13	1
C          0.94150        0.10950        0.20870
C          2.46980        0.03870        0.15210
N          2.90460       -1.33410        0.42220
C          2.98220        0.52970       -1.21700
N          4.44090        0.50130       -1.27130
H          0.58470       -0.22320        1.20660
H          0.48960       -0.54450       -0.56790
H          0.59760        1.15290        0.04380
H          2.87070        0.70430        0.94870
H          3.94770       -1.37370        0.48290
H          2.58880       -1.97130       -0.34540
H          2.63010        1.57070       -1.39610
H          2.57560       -0.11850       -2.02430
H          4.82440        1.16420       -0.55890
H          4.74480        0.83560       -2.21440
