10
62	1
C          1.06700        0.18830        0.15780
C          2.44580       -0.10780       -0.35420
O          2.88260       -1.24660       -0.28820
C          3.30060        0.97500       -0.94800
F          2.64530        2.19410       -0.93960
H          0.59060       -0.73210        0.55820
H          0.43850        0.58410       -0.66730
H          1.12350        0.94210        0.97080
H          3.55440        0.71190       -1.99620
H          4.23850        1.06840       -0.36150
