12
78	1
C          0.32840        0.99060       -0.17350
C          1.00340       -0.33430        0.17910
C         -0.33670       -1.01580       -0.09440
C         -1.00440        0.33130        0.17890
H          0.37420        1.12810       -1.27990
H          0.63330        1.91040        0.36910
H          1.19310       -0.35380        1.27850
H          1.89650       -0.65320       -0.39890
H         -0.62800       -1.89450        0.51920
H         -0.40810       -1.23160       -1.18680
H         -1.16830        0.42900        1.27830
H         -1.91100        0.60910       -0.39930
