7
55	1
F          0.95770       -0.07300       -0.00330
C          2.33940       -0.07210       -0.01050
F          2.79980        1.21570        0.18570
C          2.83370       -0.93610        1.06210
C          3.24080       -1.64770        1.94600
H          2.70390       -0.44990       -0.98800
H          3.59790       -2.27200        2.72240
