11
93	1
C          2.87660        0.66510        1.02560
O          2.31430        0.20410       -0.14730
C          3.00930       -0.21380       -1.24340
N          2.29230       -0.66190       -2.37830
N          4.29870       -0.21180       -1.27360
H          2.06620        0.93170        1.73460
H          3.48580        1.57340        0.83000
H          3.50360       -0.12610        1.48940
H          1.26230       -0.66920       -2.36900
H          2.79280       -0.98320       -3.21990
H          4.87430        0.10210       -0.48030
