11
101	1
N          0.86000       -0.05280       -0.16930
C          2.25860        0.10150        0.02260
N          2.90150        1.00900       -0.62540
C          2.96800       -0.78990        0.97330
C          4.28400       -0.69840        1.20100
H          0.34960        0.55660       -0.82510
H          0.34010       -0.77750        0.34660
H          2.42150        1.63500       -1.28870
H          2.39840       -1.54610        1.50530
H          4.89590        0.04090        0.69380
H          4.75760       -1.37370        1.90630
