17
167	1
C          1.05720        0.05000        0.00110
C          2.58290        0.04700       -0.02970
C          3.10820        0.26120       -1.45380
C          4.64100        0.25730       -1.47970
C          5.16860        0.47020       -2.89560
H          0.70560       -0.10680        1.04260
H          0.65650       -0.76680       -0.63630
H          0.66560        1.02350       -0.36370
H          2.94740       -0.92830        0.36050
H          2.95650        0.85830        0.63250
H          2.73710        1.23660       -1.83910
H          2.72790       -0.55160       -2.11140
H          5.01880       -0.71670       -1.09900
H          5.02790        1.07000       -0.82690
H          4.81450       -0.34180       -3.56590
H          6.27900        0.46280       -2.88420
H          4.82370        1.44850       -3.29330
