10
97	1
C          0.92330       -0.07570       -0.08780
C          2.42340       -0.05910       -0.05550
C          3.09940        0.47100        0.97820
C          3.12640       -0.61470       -1.13890
N          3.70190       -1.06960       -2.02590
H          0.48760        0.38300        0.80660
H          0.55240       -1.10460       -0.14670
H          0.55240        0.47690       -0.95770
H          2.58740        0.90810        1.83050
H          4.18720        0.48360        1.00280
