9
99	1
C          0.94090       -0.12000       -0.15240
C          2.40010        0.13580        0.08460
O          2.91310        1.15820       -0.34270
C          3.22560       -0.83340        0.82880
O          2.73490       -1.86240        1.26550
H          0.48430        0.71400       -0.72720
H          0.41420       -0.21240        0.82050
H          0.81450       -1.06070       -0.72830
H          4.27980       -0.63280        0.99140
