14
182	1
C          1.86750       -0.35950        0.34860
O          3.17270        0.16620        0.27170
C          3.15050        1.36320       -0.47640
C          4.56300        1.94160       -0.55910
N          5.46240        1.02450       -1.25310
H          1.90360       -1.29540        0.94290
H          1.47880       -0.62800       -0.65880
H          1.18060        0.33630        0.87990
H          2.50780        2.12340        0.02400
H          2.79020        1.17950       -1.51500
H          4.94680        2.15010        0.46440
H          4.52200        2.90010       -1.12120
H          5.57250        0.15130       -0.69010
H          6.40380        1.47240       -1.31950
