12
184	1
C          4.82040        1.56580        0.82490
O          4.68350        0.60200       -0.19500
C          3.75420        1.03450       -1.17230
C          4.48280        1.39400       -2.46200
F          5.34080        2.45720       -2.24720
H          5.60090        1.21840        1.53240
H          3.87470        1.67130        1.40100
H          5.16160        2.54300        0.41730
H          3.12130        1.89780       -0.85280
H          3.05330        0.19720       -1.37470
H          3.74420        1.67870       -3.24070
H          5.06600        0.52090       -2.82390
