11
160	1
N          1.06220        0.00900        0.02040
C          2.51090       -0.17610        0.12120
C          3.25500       -0.69650       -1.10770
C          3.17310        0.79600       -0.84740
F          4.44850        1.22150       -0.51860
H          0.61180       -0.59070        0.74780
H          0.68610       -0.28720       -0.90970
H          2.97150        0.06970        1.10250
H          2.50860       -1.19320       -1.76240
H          4.09530       -1.28790       -0.68670
H          2.70100        1.20200       -1.76720
