14
128	1
C          0.92300        0.04580       -0.16060
C          2.44600        0.08380       -0.00570
N          2.99260        0.13810        1.34650
C          3.20540       -0.88040       -0.88630
C          3.32480        0.64540       -1.10090
H          0.51070       -0.81710        0.40380
H          0.62170       -0.05020       -1.22600
H          0.48850        0.98270        0.24620
H          2.62640       -0.67580        1.89110
H          2.65560        1.01580        1.80320
H          2.74940       -1.25770       -1.82630
H          4.22940       -1.20200       -0.60070
H          2.65760        1.13890       -1.83960
H          4.15380        1.19800       -0.60820
