9
232	2
C          1.56090       -0.54830       -0.46940
N          2.77400       -0.17650       -0.26290
N          3.20290        1.08680       -0.60120
C          4.48520        1.44590       -0.37060
O          4.87260        2.56470       -0.66810
H          1.25090       -1.54990       -0.19280
H          0.83770        0.12680       -0.91830
H          2.55150        1.76390       -1.03070
H          5.17800        0.74170        0.08030
