11
212	1
C          0.86520        0.81380        0.44960
C          2.01190       -0.07290       -0.03440
O          1.56070       -1.07930       -0.87060
C          1.05360       -0.87780       -2.11500
O          1.02700        0.23690       -2.61510
H          1.25990        1.58230        1.14700
H          0.11080        0.19860        0.98440
H          0.37360        1.33230       -0.39870
H          2.47850       -0.54450        0.85610
H          2.78730        0.53570       -0.54910
H          0.68790       -1.72570       -2.68330
