11
236	1
C          1.49330        0.51940        0.90780
C          2.33210        0.05280       -0.02750
C          3.07920        0.95130       -0.96960
C          4.52080        0.77570       -0.77900
C          5.70420        0.62220       -0.61240
H          0.97240       -0.17610        1.55930
H          1.31430        1.58240        1.04140
H          2.48160       -1.01640       -0.11870
H          2.82460        2.01650       -0.82640
H          2.82150        0.67180       -2.01280
H          6.74220        0.48570       -0.47240
