11
257	2
C          0.89680        0.16140        0.01840
N          2.32440       -0.04010       -0.03730
C          2.83330       -1.20950       -0.20660
N          4.23930       -1.36930       -0.25640
O          4.77140       -2.58770       -0.42340
H          0.68630        1.24010        0.16960
H          0.46240       -0.41140        0.86580
H          0.42680       -0.16620       -0.93370
H          2.19060       -2.08080       -0.31270
H          4.85880       -0.55190       -0.14970
H          4.91580       -2.67080       -1.40070
