11
243	1
N          0.85310       -0.19000       -0.13440
C          2.27920        0.09390       -0.02050
C          2.69310        1.07430       -1.08380
C          3.22340        2.26230       -0.77590
F          3.58550        3.12010       -1.76500
H          0.58960       -0.86950        0.61540
H          0.66580       -0.64820       -1.05630
H          2.86120       -0.84490       -0.14860
H          2.48750        0.49470        0.99620
H          2.55770        0.80670       -2.12770
H          3.37070        2.55540        0.25910
