12
215	1
N          0.87930       -0.00880        0.04170
C          2.33640        0.00150        0.04830
C          2.88610        1.11890        0.93910
C          4.35570        1.13650        0.92630
C          5.56250        1.15460        0.91870
H          0.55100       -0.76250       -0.58530
H          0.52870        0.86650       -0.37730
H          2.70610        0.12010       -0.98060
H          2.69460       -0.97350        0.41020
H          2.53120        0.98410        1.97120
H          2.51020        2.09280        0.59320
H          6.62340        1.17010        0.91520
