11
209	2
C          2.27740        0.69650        1.11080
O          3.67550        0.83810        1.08120
N          3.96550        1.55320       -0.02210
C          4.28530        2.93690        0.06020
N          4.28110        3.55850        1.18560
H          2.00150        0.11780        2.01610
H          1.91580        0.12510        0.22720
H          1.77600        1.68720        1.18490
H          4.00730        1.08180       -0.93840
H          4.53880        3.47940       -0.84460
H          4.04700        3.08190        2.06830
