15
187	1
C          1.02870       -0.02030       -0.04660
C          2.54980       -0.02390       -0.03410
O          3.01240        1.30670       -0.11550
C          4.42350        1.31370       -0.11050
C          4.91120        2.75220       -0.19220
H          0.64930       -1.06210        0.01720
H          0.65690        0.44130       -0.98610
H          0.64220        0.55730        0.81990
H          2.89550       -0.61870       -0.91040
H          2.88110       -0.50130        0.91640
H          4.82570        0.76740       -0.99410
H          4.81930        0.87370        0.83340
H          4.54410        3.22610       -1.12730
H          6.02150        2.77400       -0.18940
H          4.53760        3.33080        0.67940
