10
194	1
O          1.01880        0.06280       -0.09320
C          2.44210        0.06380       -0.06090
C          2.97810       -0.36370       -1.41970
C          4.42210       -0.37640       -1.42250
N          5.57300       -0.38650       -1.42470
H          0.70970        0.33890        0.78820
H          2.77030       -0.62390        0.72650
H          2.78120        1.07330        0.19680
H          2.59530        0.31360       -2.19220
H          2.58190       -1.35410       -1.67290
