9
282	1
N          1.00930       -0.05880       -0.10720
N          2.37130       -0.02820       -0.06810
C          2.97990        0.66300        0.81560
C          4.39490        0.65290        0.80250
C          5.58970        0.61650        0.75610
H          0.54250       -0.62040       -0.82510
H          0.46060        0.47690        0.57770
H          2.43250        1.24720        1.56230
H          6.63870        0.58940        0.72140
