12
249	1
C          1.06400       -0.07890        0.09770
C          2.57040        0.03910       -0.10130
C          2.94250       -0.30310       -1.51330
N          3.53210        0.56270       -2.25590
O          3.86040        0.26420       -3.49430
H          0.80690        0.16970        1.14890
H          0.72540       -1.11550       -0.11540
H          0.53040        0.62550       -0.57590
H          3.08930       -0.66070        0.58760
H          2.88810        1.07670        0.14270
H          2.71130       -1.29140       -1.90330
H          4.30390        0.92030       -4.04840
