15
240	1
C          2.12620       -1.28810        0.69060
C          2.63630       -0.05000       -0.03730
C          3.06710        0.99970        0.95150
C          4.32720        1.46040        0.98040
C          4.75640        2.50700        1.96550
H          1.79840       -2.04740       -0.05040
H          1.26200       -1.02800        1.33870
H          2.93340       -1.72580        1.31640
H          1.82250        0.36610       -0.66840
H          3.47630       -0.34750       -0.70310
H          2.33100        1.38600        1.65170
H          5.06460        1.07620        0.28130
H          3.92250        2.82420        2.62800
H          5.12960        3.39550        1.41520
H          5.57500        2.10170        2.59560
