7
274	1
F          0.89790       -0.09160       -0.05110
C          2.25620       -0.08550       -0.03510
C          2.93730       -0.49700       -1.10650
C          4.34330       -0.49700       -1.10650
N          5.49430       -0.49700       -1.10650
H          2.77490        0.25700        0.85650
H          2.40550       -0.83620       -1.98960
