8
290	1
C          0.91720        0.03160        0.02930
C          2.38030        0.03160        0.02930
C          3.58570        0.03160        0.02930
C          4.99760        0.03160        0.02930
N          6.15470        0.03160        0.02930
H          0.54710       -0.88470       -0.47500
H          0.54710        0.92650       -0.51210
H          0.54710        0.05300        1.07500
