14
17	1
C          0.91180       -0.12280        0.14130
C          2.43290        0.00710        0.07610
C          2.87380        1.43180       -0.29530
C          4.39720        1.52740       -0.35190
F          2.35910        1.77400       -1.53480
F          2.40540        2.32920        0.64990
H          0.64000       -1.16480        0.41190
H          0.45800        0.11550       -0.84390
H          0.49510        0.56150        0.91050
H          2.81810       -0.71050       -0.68110
H          2.85510       -0.26590        1.06810
H          4.80100        0.83020       -1.11690
H          4.83810        1.27580        0.63640
H          4.69890        2.56180       -0.62120
