14
298	1
C          0.98870        0.00680       -0.18740
C          2.47050        0.16770        0.13120
C          3.00710        1.48550       -0.45240
C          4.42000        1.51760       -0.81290
N          3.38280        1.43140       -1.87450
H          0.61100       -0.93570        0.26200
H          0.83320       -0.03460       -1.28650
H          0.41000        0.85780        0.23120
H          3.02370       -0.71480       -0.26000
H          2.60210        0.19240        1.23380
H          2.55390        2.46120       -0.17650
H          5.02630        0.58390       -0.81920
H          4.89890        2.51630       -0.88510
H          3.35210        0.44360       -2.21980
