9
336	1
C          0.00000        1.28140        0.00140
C          1.12500        0.28150        0.00030
N          0.67950       -0.91180        0.00030
N         -0.67950       -0.91180        0.00120
C         -1.12500        0.28150        0.00180
H         -0.00060        1.90680       -0.91560
H          0.00060        1.90620        0.91870
H          2.18040        0.51780       -0.00030
H         -2.18040        0.51780        0.00250
