11
325	1
C         -0.69400       -0.95040       -0.17700
C         -1.11700        0.41220        0.25420
O         -0.02490        1.20780       -0.07050
C          1.07860        0.33440        0.07760
O          0.64360       -1.00690        0.19550
H         -0.75350       -1.04730       -1.28520
H         -1.30820       -1.73840        0.30780
H         -1.26020        0.44740        1.35850
H         -2.04800        0.73010       -0.26090
H          1.64060        0.61530        0.99370
H          1.73440        0.42400       -0.81450
