16
14	1
C          1.02520        0.09830        0.04100
C          2.55930        0.06730       -0.01610
C          3.00490       -0.67080       -1.28880
F          3.02070        1.37290       -0.07510
C          3.10530       -0.60250        1.26560
N          4.56590       -0.60390        1.30490
H          0.61390        0.60440       -0.85930
H          0.68180        0.65970        0.93680
H          0.61200       -0.93270        0.08810
H          2.57530       -0.17730       -2.18710
H          2.66670       -1.72860       -1.26790
H          4.10780       -0.64550       -1.39990
H          2.72730       -1.64600        1.35190
H          2.73520       -0.03060        2.14520
H          4.93380       -1.27870        0.59750
H          4.86700       -0.96290        2.23910
