8
341	1
C         -1.14840       -0.01670       -0.00210
C         -0.33850        1.09460        0.00040
N          0.92850        0.65470        0.00190
H          1.79620        1.23480        0.00390
N          0.90290       -0.66790        0.00050
N         -0.34980       -1.10190       -0.00200
H         -2.22970       -0.04140       -0.00380
H         -0.64040        2.13340        0.00110
