6
350	1
C         -1.11030       -0.00570       -0.00240
N         -0.34020        1.09670       -0.00100
N          0.90790        0.65470        0.00120
N          0.89880       -0.66890        0.00110
O         -0.33860       -1.06380       -0.00110
H         -2.19180       -0.01340       -0.00430
