18
9	1
C          2.75900        1.44440        0.23300
C          2.34230       -0.01490        0.02890
C          2.95280       -0.68230       -1.23590
C          2.51260       -2.15870       -1.29780
C          2.47640        0.01860       -2.52100
O          4.35880       -0.61400       -1.19560
H          2.31130        1.82450        1.17540
H          2.39800        2.08830       -0.59380
H          3.86350        1.52680        0.31130
H          1.23210       -0.06550       -0.01690
H          2.67040       -0.58240        0.92760
H          1.40540       -2.23770       -1.35590
H          2.85430       -2.70700       -0.39370
H          2.95040       -2.65800       -2.18890
H          1.36760       -0.00260       -2.59390
H          2.89810       -0.49000       -3.41480
H          2.81740        1.07300       -2.55700
H          4.66610       -1.08120       -0.37460
