15
292	1
C          2.34490        1.30080       -0.39540
C          2.56250       -0.11750        0.11620
C          3.16990       -0.99090       -0.99040
C          3.10710       -2.46370       -0.63950
C          2.25280       -1.90360       -1.78320
H          1.92320        1.92990        0.41670
H          1.63390        1.29560       -1.24910
H          3.30870        1.74400       -0.72560
H          1.58940       -0.52180        0.47380
H          3.26400       -0.08880        0.97760
H          4.18820       -0.76530       -1.37530
H          2.36190       -2.84940        0.08890
H          3.80450       -3.17020       -1.13730
H          1.21000       -1.57620       -1.58270
H          2.65960       -1.88340       -2.81670
