15
60	1
C          1.02660       -0.48070       -0.14050
C          2.48770       -0.04910        0.02130
O          3.12670       -0.01790       -1.23100
C          2.59400        1.31300        0.73430
C          4.04860        1.72410        0.95970
F          4.09070        2.94110        1.61480
H          0.98050       -1.47630       -0.63060
H          0.46910        0.25090       -0.76360
H          0.53510       -0.55390        0.85300
H          2.99580       -0.81430        0.64800
H          2.67280        0.67110       -1.78410
H          2.08950        1.24880        1.72320
H          2.08420        2.09570        0.13080
H          4.57910        1.82340       -0.01080
H          4.56930        0.96450        1.58090
