15
99	2
C          1.01170        0.01480        0.16660
C          2.53670        0.06830       -0.02070
C          2.88610       -0.33210       -1.46000
N          3.05560        1.40170        0.26650
C          3.01280        1.95910        1.50590
O          2.53940        1.35420        2.45580
H          0.63500       -1.00520       -0.06140
H          0.51320        0.74010       -0.51180
H          0.71980        0.25060        1.20910
H          3.02070       -0.66720        0.65970
H          2.42660        0.37260       -2.18650
H          2.52050       -1.35900       -1.67520
H          3.98820       -0.31990       -1.59900
H          3.49980        1.94470       -0.49020
H          3.42170        2.95250        1.66080
