18
57	1
C          1.42170       -0.51550       -0.08180
C          2.92950       -0.32800        0.05940
C          3.28120        1.14000        0.33670
C          4.80310        1.34650        0.46540
C          5.14950        2.82390        0.67680
O          5.33480        0.56890        1.50950
H          1.19660       -1.58410       -0.28270
H          1.03390        0.09420       -0.92560
H          0.90580       -0.21320        0.85440
H          3.42160       -0.65800       -0.88140
H          3.29050       -0.96730        0.89400
H          2.78040        1.47040        1.27360
H          2.90260        1.76430       -0.50280
H          5.28310        1.02240       -0.48390
H          4.69490        3.20160        1.61760
H          4.77330        3.43250       -0.17300
H          6.25160        2.94700        0.73750
H          4.89760        0.85760        2.35330
