14
90	1
C          0.88440       -0.18140        0.06960
C          2.37720        0.10720       -0.11960
O          2.62240        0.56210       -1.42770
C          2.88980        1.11560        0.92450
C          4.36310        1.35370        0.76550
O          5.13180        1.09760        1.67850
H          0.54870       -0.93170       -0.67720
H          0.28690        0.74610       -0.06150
H          0.69720       -0.58800        1.08630
H          2.92490       -0.85070        0.02020
H          2.13590        1.42020       -1.54490
H          2.68640        0.72150        1.94500
H          2.35720        2.08450        0.81210
H          4.75040        1.75980       -0.16340
