15
77	1
C          1.45070        0.15260        0.10100
O          2.85090        0.02740        0.00320
C          3.16740       -1.20110       -0.61730
C          4.68770       -1.35230       -0.71380
C          5.34730       -1.36550        0.66490
F          4.98550       -2.53590       -1.36700
H          1.22070        1.12480        0.58310
H          1.01740       -0.64220        0.74810
H          0.97330        0.16710       -0.90400
H          2.76240       -1.22550       -1.65500
H          2.76590       -2.06070       -0.03190
H          5.10200       -0.50800       -1.30670
H          4.96080       -2.21290        1.27040
H          5.14910       -0.41430        1.20270
H          6.44590       -1.48140        0.55140
