15
92	1
C          1.03700        0.30820       -0.11600
C          2.55080        0.11790       -0.05860
F          3.15180        1.34930        0.14520
C          2.94080       -0.84780        1.06680
C          4.43490       -1.03310        1.11370
C          4.99940       -2.23320        0.94810
H          0.77880        1.00540       -0.94090
H          0.66360        0.73370        0.84000
H          0.53230       -0.66350       -0.30330
H          2.89460       -0.29300       -1.03310
H          2.42930       -1.82260        0.90280
H          2.60540       -0.44010        2.04470
H          5.06980       -0.16930        1.28860
H          4.39450       -3.11750        0.77230
H          6.07910       -2.33350        0.98840
