16
72	1
C          1.44680       -0.13170        0.57000
N          2.89600       -0.17170        0.37340
C          3.43690        1.18200        0.19620
C          4.96000        1.15050        0.00140
C          5.68280        0.54970        1.20680
F          5.27530        0.42410       -1.13440
H          1.06910       -1.16450        0.72270
H          0.93970        0.30150       -0.31980
H          1.19250        0.46430        1.47250
H          3.09090       -0.73730       -0.48560
H          3.20380        1.80300        1.09020
H          2.97510        1.66340       -0.69520
H          5.31930        2.19280       -0.14020
H          5.36630       -0.50200        1.37110
H          5.46600        1.14230        2.12090
H          6.77880        0.56320        1.02810
