14
108	2
C          0.89130       -0.11560       -0.26920
N          2.18330        0.51540        0.02460
C          2.85870        0.92550       -1.21170
N          1.96630        1.64280        0.81530
C          2.52710        1.72240        2.04310
O          2.34290        2.70690        2.74040
H          1.04510       -1.02990       -0.88170
H          0.21580        0.57970       -0.81650
H          0.39930       -0.42330        0.67840
H          3.07280        0.03480       -1.84050
H          3.83040        1.40590       -0.96670
H          2.23850        1.64340       -1.79390
H          1.38010        2.42010        0.46690
H          3.14570        0.91060        2.41400
