9
97	1
F          0.82710       -0.01340        0.09120
C          2.20940       -0.00150        0.05440
F          2.62770        1.02100       -0.77990
C          2.75410        0.20840        1.46460
C          4.19810        0.20840        1.46460
N          5.34910        0.20840        1.46460
H          2.56300       -0.97300       -0.35350
H          2.39710       -0.60910        2.12610
H          2.39150        1.17790        1.86700
