15
114	1
C          0.91910        0.43330       -0.13200
N          2.34190        0.06450       -0.10960
C          2.49330       -1.30110        0.42740
C          2.90330        0.17980       -1.46650
C          4.36610        0.09090       -1.44780
C          5.56740        0.01810       -1.43460
H          0.49190        0.38150        0.89140
H          0.34020       -0.23730       -0.80390
H          0.80270        1.48150       -0.48190
H          2.05210       -1.36150        1.44570
H          3.56690       -1.56840        0.52610
H          1.99210       -2.04950       -0.22500
H          2.65740        1.17450       -1.89590
H          2.48430       -0.60030       -2.14460
H          6.62350       -0.04620       -1.42080
