15
126	2
C          1.13750       -0.13840        0.20220
C          2.65880       -0.06190        0.11020
C          3.11870        0.09900       -1.34640
C          4.62070        0.17940       -1.48930
N          5.17180        0.32210       -2.71640
O          5.34450        0.11680       -0.50550
H          0.83410       -0.25430        1.26410
H          0.75910       -1.01020       -0.37290
H          0.67910        0.79050       -0.19920
H          3.09010       -0.99360        0.53740
H          3.01020        0.80540        0.71100
H          2.67680        1.02840       -1.76700
H          2.75660       -0.76840       -1.94020
H          4.57470        0.37630       -3.55470
H          6.19530        0.37810       -2.82570
