17
52	1
C          0.94360       -0.01780       -0.51870
C          2.37170        0.28810       -0.04020
C          2.81730        1.64620       -0.59870
C          2.48790        0.29870        1.50160
C          2.17850       -1.05350        2.14810
F          2.37250       -0.96570        3.51450
H          0.90310       -0.00280       -1.62890
H          0.22840        0.73640       -0.12590
H          0.61890       -1.02710       -0.19580
H          3.05640       -0.48880       -0.44730
H          2.16180        2.46120       -0.22250
H          2.77610        1.63870       -1.70900
H          3.86440        1.86230       -0.29670
H          1.81210        1.07180        1.92920
H          3.53350        0.56330        1.77420
H          2.85560       -1.83430        1.74140
H          1.12650       -1.35290        1.96850
