17
61	1
C          1.00160        0.21350        0.07780
C          2.52090        0.21180       -0.06440
C          3.07980       -1.21590       -0.01440
C          4.60910       -1.22440       -0.14680
C          5.15640       -2.64750       -0.06750
F          4.98210       -0.66570       -1.35800
H          0.62520        1.25750        0.03920
H          0.70390       -0.23600        1.04900
H          0.53570       -0.36320       -0.74960
H          2.95890        0.81320        0.76200
H          2.78860        0.68790       -1.03260
H          2.63520       -1.81540       -0.83950
H          2.79650       -1.68090        0.95600
H          5.05590       -0.62650        0.67730
H          4.74140       -3.26850       -0.88990
H          4.89050       -3.10970        0.90700
H          6.26290       -2.62830       -0.15950
