7
41	1
F          0.95890        0.04750        0.08530
C          2.34150        0.04830        0.08540
F          2.79620       -1.19600        0.48080
F          2.79560        0.31750       -1.19240
C          2.84630        1.09210        1.02950
O          4.04660        1.25660        1.17780
H          2.14750        1.70790        1.58680
