15
118	1
C          0.95770        0.00870       -0.00510
C          2.45010        0.22450        0.05620
C          2.93940        1.34320        0.61750
C          3.39900       -0.82820       -0.48810
C          3.24870       -1.05520       -1.99360
F          2.00640       -1.57680       -2.30300
H          0.39660        0.84440        0.46570
H          0.69760       -0.92750        0.53150
H          0.61690       -0.06390       -1.05640
H          2.27530        2.10200        1.02030
H          4.00960        1.51470        0.68050
H          3.23170       -1.78620        0.04920
H          4.45340       -0.52310       -0.30690
H          4.01630       -1.78490       -2.32760
H          3.40460       -0.10310       -2.54410
