13
149	1
C          3.86030        1.32480       -0.05830
O          4.78310        0.39210       -0.57270
C          4.11990       -0.82910       -0.83040
C          5.06220       -1.86980       -1.38560
F          4.56300       -3.09880       -1.68240
C          6.36440       -1.63450       -1.59740
H          4.39800        2.27510        0.13780
H          3.43780        0.98360        0.91290
H          3.05860        1.55090       -0.79600
H          3.31560       -0.68290       -1.58650
H          3.69330       -1.24590        0.10990
H          6.81490       -0.67240       -1.37840
H          6.99570       -2.42070       -1.99890
