15
140	1
C          1.40930       -0.19920        0.50770
N          2.82590       -0.12270        0.14880
C          3.04560        0.89380       -0.88690
C          4.51500        1.08210       -1.21220
N          5.52910        0.35000       -0.53580
N          4.85630        1.92910       -2.11770
H          1.26780       -0.98250        1.28190
H          0.78960       -0.46190       -0.37810
H          1.06440        0.76870        0.93120
H          3.11030       -1.05660       -0.23080
H          2.64810        1.87420       -0.54170
H          2.51060        0.59900       -1.81780
H          5.30360       -0.32330        0.20880
H          6.51940        0.49860       -0.77940
H          4.15090        2.48070       -2.62890
