12
221	1
C          0.93070        0.08710        0.01390
C          2.42940        0.02240        0.01760
C          3.14680        0.32540       -1.07520
C          4.64610        0.26080       -1.07170
F          5.06520       -0.64340       -2.02910
F          5.15640        1.50930       -1.37250
H          0.59430        0.81180        0.78400
H          0.52120       -0.91520        0.25710
H          0.52880        0.40490       -0.97220
H          2.93070       -0.27810        0.93340
H          2.64440        0.62590       -1.99060
H          5.04350       -0.05730       -0.08390
