10
206	1
N          0.32020       -0.52060       -0.56330
C          1.45930        0.07000       -0.14100
O          2.50570       -0.12420       -0.74400
O          1.43430        0.87310        0.94880
N          2.52750        1.46200        1.39130
C          2.48400        2.21580        2.42800
H          0.32480       -1.13520       -1.39090
H         -0.56400       -0.36100       -0.05920
H          3.38870        2.69520        2.78490
H          1.54770        2.37880        2.95430
