15
151	2
C          2.67970       -0.43030       -1.39560
C          2.60510        0.06410        0.04960
N          3.08160       -0.93850        0.98720
C          4.38160       -1.34680        1.03450
C          4.81670       -2.38330        2.02890
O          5.21300       -0.86690        0.27740
H          2.27110        0.34850       -2.07340
H          2.07570       -1.35520       -1.51080
H          3.72370       -0.64030       -1.70270
H          1.53860        0.28630        0.27230
H          3.18580        1.00420        0.17100
H          2.40540       -1.33580        1.65720
H          3.96710       -2.72930        2.65430
H          5.59490       -1.95520        2.69500
H          5.23930       -3.25810        1.49180
