9
222	1
F          0.93670       -0.08620       -0.05960
C          2.29320       -0.01370       -0.05390
C          3.00300       -0.71860       -0.94060
C          4.50240       -0.66740       -0.96890
F          5.00540       -1.93790       -0.76210
F          4.91930       -0.21000       -2.20450
H          2.78630        0.62050        0.67650
H          2.48510       -1.34540       -1.66060
H          4.90670        0.00770       -0.18430
