14
226	1
C          0.94510        0.22140        0.12030
C          2.46170        0.05130        0.00490
O          3.11480        1.28170        0.18780
C          2.96520       -0.95950        1.00020
N          3.54780       -2.03330        0.59530
N          4.01580       -2.97120        1.48520
H          0.59070        0.95650       -0.63300
H          0.66620        0.58450        1.13290
H          0.43630       -0.74870       -0.06560
H          2.68550       -0.30400       -1.02520
H          2.89500        1.61040        1.09940
H          2.83100       -0.77220        2.06320
H          4.47800       -3.82110        1.13320
H          3.91190       -2.83880        2.50290
