14
158	2
C          2.79080       -1.14050        0.03520
O          2.90440        0.19850       -0.37660
N          3.23540        0.90950        0.71760
C          4.57760        1.33330        0.94280
C          4.90040        2.14940        2.15720
N          5.51610        1.02460        0.11740
H          2.51540       -1.75710       -0.84490
H          1.98200       -1.25890        0.79020
H          3.76200       -1.52450        0.41920
H          2.49640        1.19380        1.37930
H          4.63640        1.57560        3.07000
H          4.31480        3.09210        2.13670
H          5.98210        2.40110        2.19330
H          5.33480        0.46570       -0.72860
