14
200	1
C          0.74070       -0.41130        0.32860
C          2.15200       -0.39000        0.84470
C          2.47110       -1.12010        1.93370
O          3.05540        0.38250        0.17180
C          4.37460        0.55140        0.45020
C          5.11000        1.35240       -0.31950
H          0.07490       -1.06340        0.93410
H          0.73880       -0.78400       -0.71690
H          0.32950        0.61960        0.34430
H          1.71590       -1.71880        2.43410
H          3.46740       -1.14430        2.35050
H          4.85530        0.05400        1.28260
H          4.66220        1.86800       -1.16350
H          6.16470        1.49490       -0.10690
