13
168	1
C          0.99670        0.17400       -0.05090
C          2.48130       -0.06830       -0.03980
C          3.00080       -1.11140        0.63450
C          3.37350        0.86530       -0.82630
C          3.37160        2.21680       -0.25010
N          3.37350        3.27830        0.21180
H          0.43850       -0.60750        0.50770
H          0.64050        0.16790       -1.10310
H          0.77040        1.16330        0.39660
H          2.36120       -1.78980        1.19500
H          4.07080       -1.29880        0.64840
H          3.00120        0.91030       -1.87290
H          4.41950        0.50540       -0.84980
