12
209	1
N          1.01340        0.23960        0.00650
C          2.36780       -0.14600       -0.04640
N          2.81600       -1.01690        0.78650
C          3.29090        0.47480       -1.05890
C          3.22920        1.94470       -0.98080
C          3.17780        3.14840       -0.91940
H          0.41920       -0.09150        0.77800
H          0.66630        0.98380       -0.61470
H          2.17460       -1.43990        1.47460
H          2.95910        0.17570       -2.07350
H          4.33180        0.13020       -0.90280
H          3.15650        4.20470       -0.82260
