17
138	1
C          1.26580        0.16370        0.48620
N          2.68300        0.23320        0.12890
C          3.47180       -0.69720        0.94310
C          4.92270       -0.64830        0.52510
C          5.29180       -1.01070       -0.88980
C          5.87260       -0.29150        1.40450
H          0.69310        0.87890       -0.14100
H          1.11350        0.43160        1.55500
H          0.86840       -0.85660        0.29630
H          3.01890        1.20910        0.30680
H          3.10520       -1.73680        0.79500
H          3.35810       -0.44160        2.02190
H          4.96950       -2.05180       -1.10070
H          6.38670       -0.94140       -1.06710
H          4.78190       -0.32450       -1.59760
H          5.61600       -0.03020        2.42670
H          6.91760       -0.25570        1.11190
