18
316	1
C          0.90370        0.00600       -0.04110
C          2.43480        0.00550        0.07680
C          2.92450        1.41480        0.45150
C          2.89830       -1.09460        1.07250
C          4.42470       -1.26830        1.12470
O          2.37200       -0.88540        2.36100
H          0.57620        0.75070       -0.79790
H          0.43120        0.25880        0.93220
H          0.54240       -0.99330       -0.36520
H          2.84730       -0.24290       -0.92650
H          2.52380        1.73140        1.43730
H          2.58500        2.14790       -0.31110
H          4.03190        1.45850        0.47810
H          2.49740       -2.06490        0.70490
H          4.92570       -0.36080        1.51920
H          4.82010       -1.48810        0.11030
H          4.67960       -2.11800        1.79300
H          2.87470       -0.14110        2.78260
