12
253	1
C          0.95310       -0.10900        0.09600
C          2.44810       -0.06610        0.21400
C          3.20480       -1.13610       -0.07760
C          4.67770       -1.10070        0.03650
O          5.31030        0.02240        0.44180
O          5.32650       -2.09830       -0.23930
H          0.62170        0.66190       -0.63030
H          0.50210        0.10950        1.08610
H          0.58910       -1.10080       -0.24850
H          2.91070        0.85950        0.54400
H          2.73280       -2.05800       -0.40710
H          6.27440        0.05390        0.51900
