13
239	1
C          0.95640       -0.09740       -0.07440
N          2.37990       -0.24220        0.13660
O          2.92470        0.21180        1.27640
C          3.20020       -0.87170       -0.84130
N          4.46470       -1.00110       -0.63790
N          5.28020       -1.60510       -1.56580
H          0.68630        0.97910       -0.05230
H          0.40720       -0.62590        0.73270
H          0.64190       -0.52080       -1.05240
H          3.17350        1.15280        1.08580
H          2.75570       -1.24360       -1.76180
H          6.28810       -1.69460       -1.37630
H          4.89960       -1.97150       -2.45180
