9
291	1
F          1.79490       -1.20870       -0.20560
C          2.37900        0.02690       -0.00070
C          2.84520        0.12480        1.42380
C          4.12740        0.33660        1.74760
F          5.08150        0.47480        0.78850
F          4.48620        0.41560        3.05540
H          1.62520        0.81900       -0.18990
H          3.20810        0.15350       -0.72820
H          2.11090        0.01950        2.21690
