11
279	1
C          1.04390       -0.04530        0.04980
C          2.50690       -0.05060        0.04100
C          3.71250       -0.05490        0.03400
C          5.15340       -0.06040        0.02480
F          5.81450       -0.67500       -0.99040
C          5.83930        0.53220        1.00370
H          0.66990        0.40580       -0.89230
H          0.68130        0.54900        0.91360
H          0.67070       -1.08660        0.13470
H          5.32590        1.02820        1.82280
H          6.92450        0.52360        0.98940
