10
252	2
N          0.94580        0.16730       -0.15450
C          2.16490       -0.29700        0.20450
O          2.68400        0.10270        1.23700
C          2.86390       -1.28530       -0.65280
C          4.07010       -1.77270       -0.33880
F          4.66930       -2.67650       -1.15710
H          0.45500        0.85420        0.43710
H          0.49360       -0.15870       -1.02130
H          2.38220       -1.62510       -1.56520
H          4.58390       -1.45790        0.56430
