14
298	1
C          0.96820        0.00550       -0.00530
C          2.47310       -0.06080        0.05970
C          3.10690       -1.40970       -0.19730
C          3.17340        1.06760        0.33940
C          4.64870        1.15950        0.43670
O          5.16440        2.23470        0.69530
H          0.53420       -0.68410        0.74880
H          0.62700       -0.30450       -1.01530
H          0.57620        1.02600        0.19370
H          2.72510       -2.13750        0.54900
H          4.20750       -1.43360       -0.14450
H          2.81780       -1.75880       -1.21070
H          2.62270        1.98960        0.50880
H          5.29350        0.30650        0.28700
