10
294	1
C          0.94960       -0.08330       -0.01500
O          2.26700        0.31600       -0.00710
C          2.78440        1.04690        1.00750
C          4.06480        1.41870        0.97950
F          4.86020        1.06820       -0.06560
F          4.58150        2.15240        1.99930
H          0.75170       -0.66750       -0.93710
H          0.28030        0.80370       -0.00230
H          0.73800       -0.72440        0.86760
H          2.16100        1.33560        1.85070
