7
309	1
F          0.83880       -0.07470        0.01820
C          2.19690       -0.06440        0.04770
F          2.83650        0.32890        1.18260
C          2.88710       -0.43920       -1.03360
C          4.29310       -0.43920       -1.03360
N          5.44410       -0.43920       -1.03360
H          2.35900       -0.74970       -1.92950
