14
247	1
C          0.95570        0.02610       -0.07820
C          2.44860        0.00590        0.07670
C          3.26100        0.04710       -0.99690
C          4.75480        0.03100       -0.93450
N          5.48570        0.07960       -2.14850
N          5.40350       -0.02520        0.17830
H          0.52950       -0.89470        0.37120
H          0.64350        0.07690       -1.14350
H          0.54550        0.91020        0.45250
H          2.83920       -0.04300        1.08380
H          2.81040        0.09570       -1.98450
H          4.99590        0.12510       -3.05390
H          6.51620        0.06990       -2.13650
H          4.95260       -0.06310        1.10010
