16
331	1
C          1.02230       -0.03700       -0.06950
C          2.54350       -0.01910        0.13140
C          2.86630        0.41020        1.57170
C          3.15490       -1.36980       -0.20870
C          3.03390       -1.93460       -1.59530
O          3.77470       -2.00010        0.63670
H          0.59360        0.96090        0.16470
H          0.54920       -0.79370        0.59290
H          0.76420       -0.26820       -1.12350
H          2.98190        0.74040       -0.55230
H          2.44340       -0.31200        2.30330
H          2.44080        1.41560        1.77810
H          3.96640        0.46780        1.71690
H          3.48590       -1.23060       -2.32470
H          1.96940       -2.10160       -1.85650
H          3.56290       -2.90900       -1.66760
