14
326	1
C          0.95710       -0.11490       -0.16410
C          2.48000       -0.01320       -0.10130
F          2.92320        0.78500       -1.14300
C          2.94730        0.56710        1.24300
C          4.47170        0.62150        1.32570
F          2.43960        1.84490        1.41080
H          0.65180       -0.54900       -1.13960
H          0.49370        0.88960       -0.06350
H          0.58070       -0.77220        0.64860
H          2.90340       -1.03370       -0.22760
H          2.57560       -0.07680        2.06990
H          4.88360        1.27470        0.52740
H          4.90020       -0.39790        1.21880
H          4.77770        1.03180        2.31120
