14
244	1
C          0.91200        0.00070        0.03610
C          2.39880        0.06950       -0.15330
C          3.19830        0.61920        0.77750
C          4.67220        0.70450        0.62390
C          5.37920        0.17750       -0.59340
O          5.32900        1.21920        1.51570
H          0.58950       -1.06080        0.01080
H          0.41300        0.55000       -0.78890
H          0.59170        0.44550        1.00270
H          2.81320       -0.33950       -1.06870
H          2.75820        1.02210        1.68610
H          5.01400        0.70520       -1.49930
H          5.19120       -0.91170       -0.69650
H          6.47530        0.33900       -0.51030
