11
262	1
N          1.43730       -0.15190       -0.59210
C          2.53800        0.02810        0.29070
N          2.53720       -0.53620        1.44550
C          3.69360        0.86060       -0.10150
N          3.72800        1.43670       -1.24870
O          4.76050        2.17610       -1.59210
H          0.63390       -0.73400       -0.31360
H          1.42640        0.29580       -1.51970
H          1.74880       -1.12420        1.75340
H          4.52230        0.98330        0.59220
H          4.78080        2.60570       -2.45760
