10
290	1
O          0.94100        0.12560        0.23150
C          2.29480        0.13450       -0.12210
C          2.70530       -1.25770       -0.51280
C          3.19260       -1.55220       -1.72540
F          3.34140       -0.59180       -2.67660
F          3.54570       -2.83160       -2.01510
H          0.73400        1.04110        0.55410
H          2.91160        0.43870        0.75210
H          2.45570        0.85730       -0.95230
H          2.60160       -2.05250        0.22030
