17
413	1
C          0.97690       -0.05370        0.26080
C          2.50780       -0.00130        0.10630
C          2.91950       -0.01340       -1.37880
C          3.18590        1.11590        0.88950
C          4.11660        0.00280        1.34760
N          3.23000       -1.05270        0.83780
H          0.51520        0.83460       -0.22030
H          0.68390       -0.06360        1.33240
H          0.57680       -0.97200       -0.21910
H          2.49420        0.87120       -1.89910
H          2.54020       -0.93400       -1.87100
H          4.02420        0.01140       -1.49500
H          2.55980        1.40950        1.76150
H          3.64360        1.96210        0.33310
H          4.31260       -0.03150        2.44280
H          5.05300       -0.00730        0.74410
H          2.64890       -1.37060        1.65050
