14
362	1
C          0.94070        0.00680        0.31240
N          2.38330        0.00750        0.08560
C          3.14290       -0.99950        0.81960
C          3.03490        0.88800       -0.76240
N          2.38210        1.84890       -1.47330
O          4.24990        0.81220       -0.88940
H          0.52470       -0.98300        0.02750
H          0.35950        0.75970       -0.23510
H          0.73860        0.17380        1.39180
H          2.78350       -2.01350        0.54280
H          2.99800       -0.85410        1.91130
H          4.23420       -0.96750        0.62140
H          1.37110        2.00100       -1.44260
H          2.92420        2.47440       -2.08820
