14
372	1
C          0.91250       -0.09810       -0.09760
C          2.41630        0.00960       -0.15050
C          3.07920       -0.47110       -1.21840
C          3.13490        0.65130        0.99140
C          4.63180        0.79450        1.00970
O          2.49240        1.07410        1.94130
H          0.49260       -0.59200       -1.00020
H          0.47020        0.91740       -0.02130
H          0.61400       -0.69120        0.79220
H          2.54330       -0.93500       -2.04100
H          4.15910       -0.41210       -1.29250
H          4.96300        1.40690        0.14500
H          5.10740       -0.20740        0.96120
H          4.96590        1.29630        1.94300
