11
407	1
F          0.89020        0.08930        0.28740
C          2.25820        0.09080        0.07780
F          2.63310        0.09250       -1.25590
C          3.04650        1.11150        0.87120
N          3.97760        0.09110        1.35920
C          3.04850       -0.93000        0.86890
H          2.44790        1.51590        1.72180
H          3.53370        1.89610        0.25300
H          3.99310        0.08920        2.40670
H          2.45040       -1.33730        1.71860
H          3.53710       -1.71260        0.24930
