11
381	1
C          1.01700       -0.03860        0.10640
C          2.51510       -0.14430        0.03950
O          3.09710       -0.84380        0.85420
C          3.31060        0.57610       -0.98780
F          4.66310        0.43290       -0.98740
C          2.74730        1.36170       -1.91470
H          0.61810       -0.65150        0.94290
H          0.57040       -0.40500       -0.84160
H          0.72060        1.01820        0.27290
H          1.67430        1.51180       -1.96150
H          3.37150        1.86730       -2.64440
