13
366	1
C          0.82700        0.06090       -0.02060
N          2.26300       -0.10990       -0.13390
N          2.88770        0.31320       -1.30650
C          3.00600       -0.67140        0.87620
N          2.43190       -1.09500        2.03340
O          4.21500       -0.79640        0.73770
H          0.41760        0.53130       -0.94040
H          0.58710        0.72270        0.83870
H          0.33340       -0.92590        0.10850
H          3.36040       -0.50710       -1.75150
H          3.59760        1.04280       -1.06580
H          1.42090       -1.01520        2.20530
H          3.01640       -1.51240        2.77310
