17
336	1
C          1.08660        0.22820       -0.14830
C          2.57790       -0.11510       -0.00480
N          2.81790       -0.73740        1.30230
C          3.06750       -0.98570       -1.16640
C          2.96680       -0.44600       -2.57410
C          3.60750       -2.20630       -0.97310
H          0.76410        0.87730        0.69340
H          0.47240       -0.69760       -0.14070
H          0.89200        0.78460       -1.08760
H          3.15760        0.83370       -0.03930
H          2.19860       -1.57240        1.42450
H          2.58880       -0.05470        2.06130
H          3.53420        0.50530       -2.64590
H          1.90800       -0.25950       -2.84410
H          3.38090       -1.15130       -3.32650
H          3.71710       -2.63910        0.01390
H          3.95470       -2.79750       -1.81510
