14
343	1
C          1.10000        0.14110        0.08220
C          2.61110       -0.13260        0.10270
O          2.96460       -0.82420        1.27680
C          3.06720       -0.85790       -1.15830
N          2.86620       -0.24880       -2.42410
N          3.65080       -2.00590       -1.10590
H          0.80780        0.69580        0.99900
H          0.53140       -0.81280        0.04480
H          0.81810        0.75730       -0.79650
H          3.12980        0.84950        0.13070
H          2.37430       -1.61940        1.35550
H          2.43070        0.68150       -2.49720
H          3.17340       -0.72540       -3.28460
H          3.83710       -2.49840       -0.22170
