15
363	1
C          1.07150       -0.04140       -0.33080
N          2.48310        0.05960       -0.00330
N          3.28910        0.93400       -0.72730
C          3.06680       -0.71760        1.05440
C          4.52020       -0.54470        1.39470
N          2.37180       -1.56780        1.73010
H          0.81320        0.64570       -1.16440
H          0.45840        0.24060        0.55120
H          0.82710       -1.07700       -0.64610
H          2.90550        1.90150       -0.62570
H          3.26220        0.65060       -1.73360
H          4.70720        0.50540        1.70300
H          5.14310       -0.78340        0.50790
H          4.81960       -1.21620        2.22910
H          1.37360       -1.74260        1.55450
