12
370	1
C          0.89940       -0.00670        0.07490
N          2.33940        0.14770       -0.00450
O          2.97620       -0.30810       -1.09640
C          3.06350        0.74920        0.98930
N          2.47080        1.23200        2.11320
O          4.27540        0.85670        0.86630
H          0.51680       -0.51480       -0.83600
H          0.41090        0.98850        0.14560
H          0.62920       -0.62750        0.95550
H          3.18550       -1.25710       -0.89660
H          1.45570        1.16750        2.26750
H          3.04390        1.67980        2.84370
