12
447	1
F          0.81680        0.00980        0.08930
C          2.20030        0.01010        0.06810
C          2.87560        1.06910        0.93840
C          3.91860        0.01040        1.29840
F          4.92300        0.01060        0.34000
C          2.87600       -1.04860        0.93840
H          2.64190        0.01010       -0.95550
H          2.24140        1.25380        1.83800
H          3.21030        2.01820        0.46860
H          4.35140        0.01050        2.32120
H          2.24190       -1.23360        1.83810
H          3.21110       -1.99760        0.46870
