15
452	1
C          1.05730       -0.04100        0.08900
N          2.51620       -0.04860       -0.09210
C          3.20620        0.99540        0.68250
C          4.18560       -0.02050        1.25890
O          5.39930       -0.04050        0.53860
C          3.20160       -1.05790        0.73080
H          0.62780        0.84700       -0.42080
H          0.76100       -0.01480        1.16170
H          0.62380       -0.95040       -0.37800
H          2.55910        1.40220        1.49620
H          3.66640        1.79060        0.05720
H          4.35710        0.00510        2.35610
H          5.21030       -0.06110       -0.43730
H          2.55270       -1.42310        1.56270
H          3.65820       -1.88380        0.14370
