17
481	1
C          1.11550       -0.61550        0.13440
C          2.60700       -0.31550       -0.00720
C          3.14470        0.49740        1.18180
O          2.97430       -0.23980        2.36660
C          4.63370        0.82020        0.98140
N          5.14340        1.61550        2.09440
H          0.76740       -1.19210       -0.74840
H          0.53580        0.33040        0.19170
H          0.92180       -1.21810        1.04690
H          2.75870        0.26040       -0.94650
H          3.16250       -1.27560       -0.08900
H          2.56570        1.45090        1.22900
H          2.87830        0.41570        3.10620
H          4.77360        1.38430        0.03190
H          5.21340       -0.12700        0.91680
H          4.64940        2.53750        2.11130
H          6.15900        1.80260        1.93070
