19
470	1
C          1.19930        0.47910        0.34750
C          2.70050        0.72890        0.20650
C          3.18700        0.73730       -1.26190
N          2.56280        1.81660       -2.03470
C          4.72010        0.89130       -1.29810
C          5.27170        0.84080       -2.72260
H          0.93300        0.44740        1.42510
H          0.92570       -0.49360       -0.11360
H          0.60970        1.29150       -0.12380
H          3.22590       -0.08610        0.75130
H          2.95570        1.69390        0.69680
H          2.92780       -0.23900       -1.73010
H          2.70850        2.73830       -1.56150
H          1.54040        1.64220       -2.15780
H          5.18610        0.06440       -0.71820
H          5.01480        1.85600       -0.82980
H          5.01270       -0.12720       -3.20150
H          6.37720        0.94090       -2.69600
H          4.86000        1.67190       -3.33310
