15
483	1
C          1.06070        0.05380       -0.18940
C          2.58580        0.09920       -0.11520
C          3.08000        0.47300        1.29690
O          2.62670       -0.44850        2.25800
C          4.60880        0.59200        1.34970
F          5.20930       -0.61590        1.03930
H          0.74670       -0.20510       -1.22250
H          0.63220        1.04410        0.07460
H          0.65840       -0.71480        0.50400
H          2.94940        0.85660       -0.84360
H          2.99100       -0.89320       -0.41050
H          2.66150        1.47010        1.55670
H          2.96280       -1.34650        1.99960
H          4.92460        0.89880        2.36940
H          4.95650        1.36280        0.62930
