11
499	1
F          2.86410       -0.24080        1.45040
C          2.55650       -0.17600        0.10260
C          3.01240        1.15750       -0.48900
F          2.37240        2.19500        0.16710
C          4.52580        1.33550       -0.37240
F          4.89860        2.54270       -0.93500
H          1.45730       -0.27840       -0.01800
H          3.04870       -1.01990       -0.42640
H          2.72930        1.18670       -1.56350
H          5.04980        0.51540       -0.90810
H          4.83700        1.32630        0.69390
