13
516	1
C          1.04810        0.01980       -0.04950
C          2.57810        0.03670       -0.07280
C          3.11390       -0.67820       -1.32360
O          4.51190       -0.79160       -1.27590
C          3.05480        1.42930       -0.03180
N          3.42720        2.52480       -0.00390
H          0.67970       -1.02840       -0.04480
H          0.63050        0.54190       -0.93750
H          0.67400        0.51910        0.87050
H          2.94600       -0.49490        0.83120
H          2.79290       -0.16110       -2.25820
H          2.69610       -1.70660       -1.36820
H          4.88520        0.08370       -1.55650
