17
505	1
C          2.14280        0.74090       -1.53720
O          3.20030       -0.11730       -1.90420
C          3.12920       -1.33920       -1.18720
C          2.44090       -2.39780       -2.05390
C          4.55260       -1.79070       -0.82750
N          5.20040       -0.81600        0.04620
H          2.20010        1.65380       -2.16480
H          2.24080        1.06360       -0.47730
H          1.15240        0.27390       -1.73200
H          2.56910       -1.24900       -0.22390
H          2.99490       -2.53950       -3.00670
H          1.40300       -2.08350       -2.29070
H          2.39500       -3.36820       -1.51480
H          5.15850       -1.92700       -1.75170
H          4.50260       -2.76600       -0.29440
H          5.33730        0.08080       -0.47410
H          6.14810       -1.17810        0.29980
