17
435	1
C          0.94480        0.02860       -0.04150
C          2.47080        0.17300        0.06380
N          3.22120       -0.58870       -0.98010
C          3.26460        0.88920       -0.93530
C          2.62980        1.60240       -2.14410
C          4.62220        1.41850       -0.46620
H          0.64570       -0.93330        0.42430
H          0.55150        0.03200       -1.07530
H          0.46560        0.85510        0.52270
H          2.93330        0.02830        1.06360
H          2.56870       -0.89640       -1.73760
H          1.71450        1.11580       -2.52970
H          3.36170        1.62640       -2.97840
H          2.38190        2.64690       -1.86240
H          5.04850        0.80800        0.35930
H          4.50850        2.46430       -0.11190
H          5.34060        1.40270       -1.31250
