19
500	1
C          3.67200        0.78830        0.15140
C          2.71110       -0.07810       -0.66590
C          2.99260       -1.59910       -0.57420
C          1.87340       -2.33860       -1.33210
N          4.32310       -1.92580       -1.13360
C          4.68960       -3.33540       -0.95760
H          3.35310        1.85000        0.08470
H          4.70850        0.73220       -0.23610
H          3.65590        0.48080        1.21870
H          2.73830        0.25200       -1.72730
H          1.68960        0.11430       -0.26860
H          2.94660       -1.89600        0.49860
H          1.89430       -2.07370       -2.41100
H          0.88090       -2.06250       -0.91600
H          1.96330       -3.43770       -1.22740
H          5.05070       -1.38720       -0.61350
H          4.06790       -3.99370       -1.59640
H          4.60350       -3.63930        0.10910
H          5.74260       -3.48390       -1.27820
