13
446	1
O          0.90920       -0.09380       -0.01680
C          2.30880       -0.06180       -0.03360
C          2.95360        1.01200        0.84870
C          3.99640       -0.03460        1.24080
F          5.02140       -0.03500        0.30430
C          2.97050       -1.10510        0.86820
H          0.61550        0.76630       -0.41400
H          2.76100       -0.08960       -1.05320
H          2.30010        1.19990        1.73410
H          3.29350        1.95900        0.37870
H          4.40720       -0.02180        2.27260
H          2.32150       -1.28560        1.75850
H          3.32470       -2.05710        0.41890
