17
490	1
C          1.21770       -0.38360       -0.59470
C          2.68870       -0.05890       -0.34450
C          3.17860       -0.64440        0.98750
F          3.03870       -2.02330        0.96810
C          4.64980       -0.27990        1.23160
C          5.15090       -0.82690        2.56640
H          0.89810        0.06140       -1.56050
H          0.58640        0.03740        0.21660
H          1.06370       -1.48240       -0.64440
H          2.80750        1.04670       -0.32930
H          3.29600       -0.46950       -1.18060
H          2.56040       -0.23050        1.81470
H          4.76090        0.82660        1.24060
H          5.27920       -0.69300        0.41330
H          4.55180       -0.40950        3.40360
H          6.21320       -0.53760        2.71110
H          5.08140       -1.93520        2.58460
