15
557	1
C          3.49170       -1.68570        1.00870
N          3.52030       -1.04860       -0.30960
N          3.32290       -1.99490       -1.31940
C          2.06430       -2.00170       -2.03050
C          4.33290       -2.94330       -1.69670
N          5.52150       -2.92240       -1.20180
H          3.61750       -0.90960        1.79200
H          4.29590       -2.43930        1.12700
H          2.50930       -2.17960        1.16690
H          4.39850       -0.50850       -0.48390
H          1.38850       -1.21130       -1.63890
H          1.56690       -2.98630       -1.90300
H          2.23970       -1.81330       -3.11100
H          4.10090       -3.69020       -2.45000
H          5.82880       -2.23190       -0.50510
