14
563	1
C          1.02690        0.15130        0.08610
C          2.55200        0.09460        0.00580
C          3.01350       -1.33690       -0.31090
O          4.42000       -1.48270       -0.11780
C          3.03330        1.02570       -0.98740
C          3.43000        1.79320       -1.80600
H          0.65240       -0.52260        0.86410
H          0.56330       -0.13810       -0.86430
H          0.68310        1.16360        0.32760
H          2.96280        0.38200        0.98200
H          2.77640       -1.62620       -1.34120
H          2.52640       -2.05290        0.35940
H          4.85760       -0.84270       -0.70710
H          3.78140        2.48540       -2.53680
