11
539	1
O          2.73470        0.10630       -1.29930
C          2.43910        0.08210        0.07040
C          2.93520       -1.22250        0.69520
F          2.32260       -2.29850        0.07740
C          4.42400       -1.35650        0.55770
O          5.13010       -1.44040        1.54990
H          2.38560        0.97020       -1.64060
H          1.33730        0.14430        0.21440
H          2.92920        0.94160        0.58120
H          2.65750       -1.22830        1.77220
H          4.87870       -1.38310       -0.42750
