11
617	1
C          0.95010        0.13630       -0.04400
C          2.47700        0.08100       -0.03980
C          2.95830       -0.54850        1.16730
C          3.35500       -1.06740        2.16220
C          2.95830       -0.64960       -1.18860
N          3.34200       -1.23200       -2.10420
H          0.57450        0.69960        0.81820
H          0.50690       -0.86650       -0.00110
H          0.57630        0.62290       -0.95240
H          2.85260        1.11040       -0.08480
H          3.71350       -1.53690        3.05000
