12
574	1
N          0.87700       -0.04020       -0.07580
C          2.33810       -0.04630       -0.04350
C          2.86720       -0.52330        1.31390
F          4.24560       -0.61690        1.25600
C          2.51120        0.40560        2.39510
C          2.22390        1.16200        3.28920
H          0.57090        0.24900       -1.03330
H          0.51040        0.67020        0.59750
H          2.73220        0.96840       -0.27770
H          2.70310       -0.74820       -0.82460
H          2.45370       -1.52830        1.54360
H          1.98010        1.82720        4.07550
