9
590	1
O          0.98440        0.11300       -0.06570
C          2.36420       -0.06590        0.10150
C          2.82400        0.60510        1.36630
O          3.99290        0.53570        1.71370
C          2.64910       -1.50400        0.15680
N          2.88230       -2.63710        0.18870
H          0.85250        1.03310       -0.41410
H          2.91810        0.35110       -0.76890
H          2.12060        1.16950        1.97140
