8
624	1
F          0.92310       -0.11990        0.01770
C          2.30470       -0.10220        0.01160
C          2.80150       -0.31950        1.37170
C          3.21000       -0.49670        2.49230
C          2.80200       -1.16010       -0.87010
N          3.19480       -1.99590       -1.56760
H          2.65890        0.88230       -0.35760
H          3.56850       -0.65240        3.47580
