12
662	2
N          3.65490       -0.09820        1.50270
N          2.91820        0.01470        0.33010
C          3.47290        0.53590       -0.79390
O          2.80010        0.62460       -1.81090
C          4.90780        1.00680       -0.80030
O          5.26900        1.52990       -2.05090
H          3.66600       -1.10670        1.77670
H          3.15890        0.44600        2.24440
H          1.93580       -0.30200        0.31620
H          5.59030        0.17130       -0.52290
H          5.03280        1.80510       -0.03930
H          5.43920        0.75350       -2.64620
