12
723	2
N          1.53180       -0.29480       -0.92870
N          2.78710       -0.38170       -0.33330
C          3.23320        0.57590        0.52430
O          2.52580        1.53840        0.79070
C          4.57990        0.44960        1.13350
C          5.06620        1.36160        1.98320
H          1.48850        0.58610       -1.49110
H          0.80490       -0.26820       -0.17710
H          3.38590       -1.19130       -0.55320
H          5.19410       -0.41020        0.88240
H          4.48810        2.23700        2.26290
H          6.05740        1.23150        2.40550
