13
637	1
O          2.72700        0.28980       -1.42170
C          2.34980       -0.00960       -0.10710
C          2.86290        1.06560        0.81830
C          2.00160        1.78900        1.55580
C          4.35450        1.30060        0.89700
F          4.68860        2.30810        1.78650
H          2.43090       -0.47860       -1.97570
H          2.79760       -0.97940        0.20480
H          1.24040       -0.09020       -0.05410
H          0.93220        1.61170        1.49400
H          2.34800        2.56580        2.22930
H          4.73830        1.57840       -0.10680
H          4.85480        0.36460        1.22250
