14
650	2
C          0.74700        1.05190        0.20930
N          2.16560        0.90220        0.44720
C          3.16080        1.43090       -0.43570
N          2.83920        2.07560       -1.50480
C          4.61760        1.23010       -0.12010
O          5.25190        2.46790        0.05600
H          0.17420        0.56190        1.02500
H          0.47000        0.57160       -0.75290
H          0.47670        2.12880        0.18710
H          2.46690        0.39170        1.29080
H          1.86250        2.24640       -1.77990
H          5.10970        0.64730       -0.93190
H          4.74020        0.64160        0.81310
H          5.49160        2.79980       -0.84860
