12
699	1
O          1.25840        0.10780       -0.17610
C          2.64310        0.03030        0.03160
C          3.01920        0.26270        1.48300
C          2.09310        0.51110        2.42620
C          4.44780        0.21470        1.87270
O          5.31180       -0.00860        1.03930
H          1.11500       -0.05580       -1.14440
H          3.15080        0.80370       -0.58670
H          3.00230       -0.98090       -0.26250
H          1.03570        0.55590        2.18890
H          2.38680        0.67430        3.45920
H          4.73910        0.37820        2.90610
