13
701	1
F          2.82950        0.05650       -1.19530
C          2.36770        0.03820        0.10820
C          2.78960       -1.24600        0.78560
C          1.85430       -2.09310        1.24360
C          4.22890       -1.59580        0.96120
C          5.22960       -0.80330        0.55710
H          1.26230        0.14950        0.08320
H          2.78230        0.90670        0.66160
H          0.79700       -1.87120        1.13420
H          2.13570       -3.02050        1.73410
H          4.48510       -2.53600        1.44280
H          5.04710        0.14950        0.07390
H          6.25750       -1.11360        0.71510
