12
652	2
O          0.69360        0.13370       -0.15990
C          2.08580       -0.01620       -0.10030
C          2.80650        1.30110       -0.28670
N          2.16540        2.40370       -0.47520
N          4.22650        1.31630       -0.25220
O          4.90080        2.46560       -0.40480
H          0.31280       -0.77330       -0.02820
H          2.41850       -0.70840       -0.90510
H          2.37170       -0.42850        0.89250
H          1.13730        2.44990       -0.50910
H          4.74700        0.44060       -0.09430
H          5.11820        2.50680       -1.37120
