14
727	1
C          1.15140       -0.24230        0.26530
O          2.50250       -0.21560       -0.01900
C          3.15410       -1.05550       -0.87730
C          2.51090       -2.02760       -1.55310
C          4.61620       -0.89310       -1.07220
C          5.31320        0.05160       -0.43170
H          0.92010        0.55960        0.99600
H          0.87150       -1.21910        0.71440
H          0.55990       -0.05940       -0.65710
H          1.44420       -2.18760       -1.44610
H          3.05350       -2.68170       -2.22960
H          5.14320       -1.55660       -1.75300
H          4.83260        0.73820        0.25810
H          6.38170        0.14080       -0.59910
