10
644	1
F          2.78060        0.02420       -1.21340
C          2.17150        0.06360        0.02720
C          2.72970       -1.01930        0.90190
O          1.98930       -1.88280        1.34760
C          4.19230       -1.04730        1.23220
F          4.54560        0.11430        1.89360
H          1.07650       -0.06820       -0.10640
H          2.35470        1.05370        0.49440
H          4.78550       -1.13200        0.29780
H          4.42910       -1.91650        1.88230
