11
741	2
N          3.00610        0.41100        1.27680
N          2.39020        0.07180        0.07180
C          3.14900       -0.37530       -1.05380
N          2.56850       -0.98360       -2.02400
C          4.57310       -0.18080       -1.12020
C          5.76430       -0.02960       -1.19780
H          2.40890        1.11610        1.76450
H          3.93010        0.86400        1.10010
H          1.37910       -0.13100        0.07930
H          1.55560       -1.16610       -2.01150
H          6.80930        0.09420       -1.28290
