8
767	1
O          0.94240        0.08200       -0.04120
C          2.16210        0.08200       -0.04120
C          2.88120        0.96330        0.83960
C          3.48470        1.70150        1.57740
C          2.88120       -0.79920       -0.92200
C          3.48470       -1.53740       -1.65990
H          4.01480        2.34940        2.22490
H          4.01480       -2.18530       -2.30740
