11
779	1
N          0.93620        0.16530       -0.18170
C          2.34200        0.07910        0.19490
C          2.75590       -1.36300        0.29690
F          2.64530       -2.16140       -0.79750
C          3.22980       -1.87190        1.43920
F          3.59770       -3.17830        1.50310
H          0.67990        1.17380       -0.28380
H          0.35010       -0.23600        0.58660
H          2.50240        0.62240        1.15260
H          2.96150        0.56710       -0.58730
H          3.32600       -1.25260        2.32530
