15
776	1
C          2.16110        0.70950        1.38970
C          2.66170        0.03980        0.11470
C          3.08010       -1.38100        0.39100
F          2.15220       -2.25420        0.87060
C          4.34300       -1.78630        0.16660
C          4.79290       -3.19500        0.42920
H          1.84620        1.75020        1.16450
H          2.96980        0.73850        2.15100
H          1.28990        0.15770        1.80300
H          3.50600        0.63900       -0.29180
H          1.84730        0.03230       -0.64050
H          5.07630       -1.08280       -0.21770
H          3.97750       -3.83940        0.81940
H          5.61600       -3.18100        1.17340
H          5.16940       -3.63860       -0.51570
