11
807	1
C          0.92470       -0.00260       -0.04930
C          2.43300       -0.05960       -0.04830
C          3.09230       -1.00710        0.64090
F          2.42650       -1.94850        1.36210
C          3.19990        0.94540       -0.81970
O          2.62220        1.81490       -1.45290
H          0.46410       -0.80590        0.56310
H          0.55160       -0.10610       -1.08980
H          0.59140        0.97490        0.35820
H          4.17810       -1.03550        0.63230
H          4.28550        0.91680       -0.82820
