18
768	1
C          2.09000        0.49800        1.35870
C          2.66500        0.05930        0.01330
C          3.09220       -1.39920        0.01580
C          2.01630       -2.44540        0.23840
C          4.40250       -1.69300       -0.19970
C          5.02260       -3.06690       -0.24250
H          1.81260        1.57210        1.30870
H          2.84680        0.36320        2.16060
H          1.17650       -0.07740        1.61290
H          3.52310        0.72940       -0.21430
H          1.90320        0.21260       -0.78090
H          1.23470       -2.32740       -0.54090
H          1.54930       -2.30230        1.23320
H          2.34760       -3.49380        0.20000
H          5.09530       -0.87100       -0.35790
H          4.34110       -3.91560       -0.07860
H          5.81110       -3.12300        0.53650
H          5.49900       -3.20990       -1.23450
