12
740	2
C          0.99220       -0.04250       -0.15050
N          2.40970        0.18540       -0.02780
C          3.05730        0.27660        1.23350
N          4.27370        0.65850        1.30120
C          2.37670       -0.02510        2.44550
C          1.85720       -0.26490        3.49510
H          0.73830       -0.18580       -1.21800
H          0.46030        0.85390        0.22190
H          0.66410       -0.93830        0.41370
H          2.91550        0.51920       -0.85880
H          4.78120        0.88450        0.44070
H          1.39900       -0.47580        4.41370
