10
810	1
F          0.77970       -0.01930       -0.16470
C          2.13300       -0.14080       -0.16020
C          2.90260        0.93470        0.03310
F          2.31750        2.14860        0.22470
C          4.37760        0.81110        0.03950
C          5.16440        1.87370        0.23110
H          2.57620       -1.12020       -0.31530
H          4.83670       -0.16190       -0.11430
H          4.74520        2.86280        0.38830
H          6.24310        1.75470        0.23090
