13
780	1
C          0.86950        0.15490       -0.14010
C          2.36590        0.24870       -0.22980
C          3.15340       -0.84090       -0.26850
F          2.60850       -2.08740       -0.22800
C          4.64970       -0.71220       -0.35940
O          5.24940       -1.30380        0.76040
H          0.52740        0.67050        0.78110
H          0.50710       -0.89400       -0.11090
H          0.42020        0.65720       -1.02180
H          2.81130        1.23910       -0.26340
H          4.96920        0.35120       -0.40350
H          5.01290       -1.19240       -1.29610
H          5.28350       -2.28070        0.58560
