17
845	1
C          2.51010       -0.51550       -1.72120
C          2.50140       -0.00630       -0.27410
C          2.86610       -1.01360        0.85180
C          2.70480       -0.51660        2.28980
C          2.75260       -2.45480        0.63540
N          4.09560       -1.79570        0.68290
H          2.19970        0.31050       -2.39540
H          1.78480       -1.34550       -1.84930
H          3.51760       -0.84290       -2.04470
H          1.47010        0.35410       -0.06980
H          3.18490        0.86620       -0.19660
H          1.63690       -0.28320        2.48290
H          3.30550        0.40590        2.43400
H          3.04170       -1.27190        3.03290
H          2.62640       -2.90000       -0.37460
H          2.67990       -3.11590        1.52470
H          4.45890       -1.71150       -0.29080
