14
933	2
C          1.07820       -0.04680        0.17260
C          2.59050       -0.01490       -0.04600
C          3.11120       -1.25600       -0.83810
N          3.70620       -0.68410       -2.02950
C          3.60060        0.57970       -2.03790
N          2.95580        1.07250       -0.91220
H          0.80740       -0.91730        0.80690
H          0.54400       -0.12590       -0.79870
H          0.75200        0.88230        0.68610
H          3.12140        0.08940        0.92540
H          2.29310       -1.94850       -1.13300
H          3.88450       -1.80270       -0.25740
H          3.98060        1.20090       -2.83770
H          2.78420        2.07040       -0.72140
