14
872	1
C          1.03750       -0.08070        0.28820
C          2.53150        0.04070       -0.00910
C          3.29280        1.10980        0.83260
C          4.10590        0.00620        1.58090
C          3.33920       -0.90790        0.74270
O          3.37190       -2.12710        0.68470
H          0.50310        0.78610       -0.15340
H          0.84300       -0.10140        1.38270
H          0.64030       -1.01370       -0.16450
H          2.79250        0.02090       -1.08940
H          2.63660        1.67460        1.53200
H          3.95210        1.73790        0.19340
H          3.83410       -0.14840        2.64690
H          5.18440       -0.05120        1.32080
