14
895	1
F          0.97650        0.03290       -0.21890
C          2.33600        0.04060        0.03700
C          2.76100        1.12650        0.99170
C          4.17240        0.65250        1.29950
N          4.10330       -0.81350        1.39170
C          2.80360       -1.18220        0.80700
H          2.90890        0.13430       -0.91420
H          2.14390        1.06230        1.91770
H          2.70330        2.15950        0.58760
H          4.60690        1.13120        2.20400
H          4.82410        0.89770        0.43110
H          4.11120       -1.10660        2.39710
H          2.07910       -1.37400        1.63440
H          2.86360       -2.09380        0.17600
