12
862	1
F          0.93490       -0.09060        0.06490
C          2.31810       -0.07450        0.09140
C          2.94790        0.97390        1.00770
C          3.99580       -0.07620        1.37580
C          2.97530       -1.13850        0.96870
F          3.48920       -2.23410        0.29820
H          2.79760       -0.04150       -0.91490
H          2.28330        1.12970        1.89090
H          3.28510        1.93700        0.56930
H          4.40120       -0.08960        2.40960
H          4.80860       -0.04260        0.61140
H          2.32180       -1.39400        1.83550
