12
873	1
O          0.95030       -0.13710        0.26860
C          2.28150        0.03800       -0.12550
C          3.04920        1.12080        0.69580
C          3.91420        0.04240        1.41340
C          3.14350       -0.88490        0.59770
O          3.19360       -2.10380        0.54890
H          0.47890        0.68990       -0.00970
H          2.46220       -0.00730       -1.22150
H          2.39480        1.66930        1.40950
H          3.67210        1.76330        0.03470
H          3.67920       -0.12140        2.48680
H          4.98470        0.01060        1.11850
