14
851	1
C          0.93560       -0.49900       -0.14340
C          2.38090       -0.01000       -0.06260
C          3.04340        0.18050        1.30450
O          3.16490       -1.05170        1.96130
C          3.25830       -0.25760       -1.22620
O          2.66780        1.01510       -0.96350
H          0.86280       -1.51980        0.28570
H          0.57180       -0.52850       -1.19300
H          0.28050        0.18410        0.43670
H          2.45380        0.89920        1.91820
H          4.05830        0.62090        1.19870
H          2.29950       -1.22050        2.41740
H          2.81570       -0.63130       -2.17330
H          4.35620       -0.13470       -1.11660
