17
863	1
C          0.91850       -0.08170        0.04320
C          2.44130       -0.12590       -0.03420
C          3.22150        0.89470        0.77670
N          4.12150       -0.14060        1.30360
C          3.15640       -1.14260        0.83960
C          3.79640       -2.30980        0.09430
H          0.54600        0.82230       -0.48220
H          0.57270       -0.05440        1.09860
H          0.49890       -0.98350       -0.45010
H          2.85210       -0.14190       -1.06950
H          2.61350        1.31800        1.61350
H          3.73310        1.67050        0.16800
H          4.14030       -0.11090        2.35030
H          2.52120       -1.47750        1.69660
H          4.44780       -1.94640       -0.72910
H          3.00220       -2.95980       -0.32990
H          4.41110       -2.90780        0.79930
