11
924	1
O          1.29160       -0.12880        0.54950
C          2.41250       -0.08130        0.06910
N          3.02710        1.05350       -0.23470
C          4.32340        0.77000       -0.77790
C          4.36430       -0.78920       -0.73840
O          3.14120       -1.16230       -0.20260
H          2.63080        1.99530       -0.09980
H          5.11040        1.21660       -0.13310
H          4.39070        1.15500       -1.81800
H          5.18610       -1.14960       -0.08340
H          4.47010       -1.21090       -1.76080
