14
934	1
C          0.90780        0.04980        0.19540
C          2.40220        0.10750       -0.11580
C          2.90860       -1.18330       -0.82820
C          3.46620       -0.62200       -2.08200
C          3.28280        0.72030       -2.09810
O          2.67320        1.14540       -0.99140
H          0.69720       -0.79140        0.88950
H          0.32200       -0.09330       -0.73790
H          0.58740        0.99780        0.67700
H          2.97360        0.27450        0.82370
H          2.09040       -1.89040       -1.08600
H          3.70200       -1.69140       -0.23980
H          3.93840       -1.18770       -2.87420
H          3.59140        1.37310       -2.90330
