11
975	1
F          1.13790        0.06890       -0.37020
C          2.49060        0.03440       -0.08260
C          2.87740       -1.27820        0.65600
N          3.33910       -0.78870        1.92580
N          3.27700        0.56350        2.01440
C          2.82150        1.07380        0.94800
H          3.09540        0.18750       -1.00140
H          3.70310       -1.80930        0.13610
H          2.00190       -1.94650        0.80230
H          3.68620       -1.38470        2.69090
H          2.69180        2.13990        0.81940
