12
940	1
O          1.29780       -0.06630        0.49550
C          2.45670       -0.06650        0.11210
C          3.22410       -1.32450       -0.14170
C          4.52590       -0.75500       -0.57270
C          4.52620        0.62110       -0.57280
C          3.22460        1.19110       -0.14190
H          2.76080       -1.92700       -0.95090
H          3.33510       -1.92650        0.78460
H          5.38410       -1.34960       -0.85670
H          5.38460        1.21530       -0.85690
H          2.76150        1.79370       -0.95120
H          3.33580        1.79330        0.78420
