11
992	1
O          0.89560        0.03400       -0.07580
C          2.24130        0.03020       -0.06980
C          3.06380        1.13610       -0.06560
C          4.35570        0.64540       -0.06000
N          4.33350       -0.70370       -0.06060
H          5.16510       -1.33480       -0.05720
C          3.04310       -1.08710       -0.06660
H          0.40070        0.86530       -0.07760
H          2.76220        2.17520       -0.06650
H          5.26050        1.23870       -0.05570
H          2.71060       -2.11700       -0.06850
