16
968	1
C          1.02040       -0.03250       -0.02970
C          2.54880       -0.08250       -0.09000
C          3.13740       -1.33990        0.57110
C          3.33630       -0.98960        2.05150
C          3.57180        0.47550        1.96620
C          3.12820        0.98470        0.77170
H          0.59480       -0.87590       -0.61340
H          0.65490        0.91990       -0.46960
H          0.65630       -0.10670        1.01800
H          2.88550       -0.02730       -1.14850
H          4.17230       -1.41880        0.16020
H          2.63860       -2.30720        0.34960
H          4.18830       -1.56700        2.46990
H          2.41770       -1.14910        2.65550
H          3.93320        1.09230        2.77820
H          3.10820        2.04270        0.54580
