9
955	1
N          1.07350       -0.02590       -0.06820
C          2.35450       -0.03400       -0.06470
N          3.13310        1.05640       -0.06200
H          2.84760        2.06070       -0.06220
N          4.38090        0.61110       -0.05890
N          4.36730       -0.71830       -0.05970
N          3.11070       -1.13820       -0.06330
H          2.80400       -2.13630       -0.06460
H          0.55140        0.86270       -0.06910
