12
1032	1
C          1.04700        0.05850        0.04430
N          2.50440        0.05710        0.04830
C          3.31640        1.12560        0.05140
C          4.61600        0.67090        0.05460
N          4.60980       -0.67900        0.05360
C          3.30500       -1.02460        0.04980
H          0.65740        1.09900        0.04400
H          0.67060       -0.46490        0.94820
H          0.67560       -0.46370       -0.86240
H          2.98920        2.15750        0.05120
H          5.51060        1.27890        0.05760
H          2.94990       -2.04710        0.04800
