14
990	1
C          1.01480        0.10040       -0.22380
C          2.32530        0.09620        0.03430
C          3.16440       -1.13700        0.15960
C          4.58250       -0.58010        0.45720
C          4.41120        0.90920        0.47180
C          3.12200        1.27800        0.22970
H          0.48040       -0.83460       -0.35950
H          0.47100        1.03710       -0.30040
H          3.15050       -1.70900       -0.79330
H          2.79750       -1.76740        0.99820
H          5.30020       -0.86800       -0.34040
H          4.94770       -0.92600        1.44760
H          5.21110        1.61510        0.65240
H          2.76980        2.30090        0.19360
