9
1028	1
F          0.94370        0.02990        0.05220
C          2.32550        0.03040        0.08510
C          2.89280        1.15510       -0.73780
N          3.57540        0.70860       -1.71630
N          3.57580       -0.65080       -1.71490
C          2.89350       -1.09570       -0.73550
H          2.70750        0.03150        1.12720
H          2.75500        2.21080       -0.54670
H          2.75630       -2.15110       -0.54230
