8
965	1
O          1.07680       -0.02630        0.06920
C          2.29410       -0.04560        0.06390
O          3.04790        1.02690        0.05850
C          4.29400        0.61360        0.05390
C          4.27210       -0.76800        0.05660
O          3.01350       -1.14160        0.06280
H          5.16500        1.25500        0.04880
H          5.12240       -1.43660        0.05410
