14
1021	1
C          0.83320        0.06630        0.11830
C          2.35950        0.06640        0.14440
C          2.93410        1.20780       -0.64140
C          3.69950        0.74820       -1.68950
C          3.69960       -0.62110       -1.68730
C          2.93420       -1.07750       -0.63780
H          0.44740        0.96890        0.63800
H          0.44740       -0.83480        0.64080
H          0.45430        0.06460       -0.92700
H          2.73290        0.06800        1.19070
H          2.77600        2.25570       -0.42230
H          4.21810        1.37980       -2.39830
H          4.21820       -1.25490       -2.39420
H          2.77610       -2.12470       -0.41550
