8
1012	1
O          1.02660       -0.05590        0.04570
C          2.24420       -0.05940        0.04030
N          3.00220        1.05070        0.03450
C          4.25860        0.54890        0.03010
O          4.23370       -0.76840        0.03310
N          3.00240       -1.17610        0.03940
H          2.68840       -2.17190        0.04300
H          5.15830        1.14920        0.02480
