11
951	1
N          0.98030        0.10410        0.03930
C          2.26190        0.08610        0.04520
N          3.03070        1.19120        0.04940
H          2.71670        2.18740        0.04850
C          4.29980        0.74150        0.05500
C          4.27450       -0.64120        0.05400
N          2.98980       -1.04430        0.04790
H          2.63840       -2.02780        0.04570
H          0.46360        0.99600        0.03750
H          5.17800        1.37360        0.05940
H          5.12900       -1.30480        0.05760
