10
996	1
O          0.88080       -0.00990        0.01250
C          2.22660       -0.00700        0.01760
C          3.04510        1.09650        0.02170
C          4.33230        0.59670        0.02610
O          4.29160       -0.72110        0.02460
C          3.03710       -1.11640        0.01950
H          0.38200        0.81900        0.01140
H          2.74660        2.13650        0.02160
H          5.24280        1.18080        0.03010
H          2.71660       -2.14970        0.01730
