9
1006	2
O          0.95150       -0.06220        0.07210
C          2.29690       -0.04110        0.07730
C          3.09480        1.07750        0.07880
C          4.37720        0.57340        0.08450
O          4.30410       -0.74160        0.08620
N          3.06450       -1.14300        0.08200
H          0.44110        0.75980        0.06890
H          2.78890        2.11520        0.07600
H          5.29690        1.14270        0.08730
