12
1015	1
C          1.00380       -0.04900       -0.15430
C          2.31680        0.01730        0.06930
O          3.08800       -1.05440        0.33180
C          4.41620       -0.68710        0.52270
C          4.38670        0.80870        0.34090
C          3.11090        1.21070        0.06850
H          0.49440       -1.00690       -0.13110
H          0.43430        0.85190       -0.36110
H          5.06650       -1.16520       -0.23960
H          4.75150       -0.95430        1.54680
H          5.23820        1.47210        0.41270
H          2.78560        2.22750       -0.10890
