10
1111	1
N          1.05060        0.05650        0.04510
C          2.46200        0.05680        0.04910
C          3.27850        1.15890        0.04810
N          4.55470        0.72950        0.05300
C          4.46050       -0.62000        0.05670
O          3.20640       -1.01740        0.05440
H          0.53020        0.94560        0.04100
H          0.53500       -0.83490        0.04630
H          2.97630        2.19770        0.04410
H          5.31200       -1.28700        0.06110
