12
1075	1
C          0.99300       -0.00720       -0.02950
C          2.48110       -0.02240       -0.18400
C          3.24250       -1.08120       -0.22310
O          4.51420       -0.69480       -0.37040
C          4.56490        0.69230       -0.42840
O          3.23680        1.07610       -0.30450
H          0.59050       -1.03960        0.05130
H          0.53620        0.48920       -0.91070
H          0.72350        0.55690        0.88740
H          2.91480       -2.11010       -0.14990
H          4.97710        1.02630       -1.40420
H          5.16670        1.09540        0.41350
