11
1091	1
C          1.07920        0.02620        0.02280
C          2.57170        0.03570        0.02510
C          3.40340        1.13030        0.02630
N          4.67040        0.66990        0.02820
N          4.60930       -0.65600        0.02810
N          3.34820       -1.05720        0.02620
H          3.03910       -2.05440        0.02580
H          0.68400        1.06400        0.02220
H          0.71040       -0.50060        0.92740
H          0.71310       -0.50060       -0.88280
H          3.12190        2.17490        0.02590
