12
1106	1
C          0.94780        0.01250        0.08610
C          2.43980        0.02560        0.09100
C          3.24550        1.14530        0.09150
C          4.54010        0.67630        0.09670
C          4.45070       -0.70150        0.09910
O          3.18490       -1.05590        0.09560
H          0.54690        1.04820        0.08280
H          0.58000       -0.51440        0.99090
H          0.58590       -0.51800       -0.81890
H          2.92910        2.18010        0.08840
H          5.44530        1.26850        0.09850
H          5.28090       -1.39490        0.10320
