8
1094	1
F          1.01430        0.01660       -0.05690
C          2.36940        0.02510       -0.05160
C          3.19390        1.12180       -0.04830
N          4.46290        0.66610       -0.04330
N          4.40640       -0.66030       -0.04360
N          3.14650       -1.06540       -0.04860
H          2.83810       -2.06250       -0.04990
H          2.90620        2.16450       -0.04940
