10
1051	1
C          0.89400        0.02690        0.01490
N          2.34850        0.03040        0.01080
N          3.10190        1.11550        0.00760
C          4.36850        0.65960        0.00440
N          4.37410       -0.68950        0.00570
N          3.10180       -1.05480        0.00970
H          0.50680        1.06800        0.01500
H          0.52550       -0.49620        0.92200
H          0.52030       -0.49790       -0.88900
H          5.25190        1.28340        0.00130
