11
1070	1
F          1.06200        0.01280        0.11000
C          2.41990        0.01080        0.07410
C          3.14510       -1.05490       -0.00730
C          4.56790       -0.67920       -0.02280
O          4.61230        0.74150        0.05910
C          3.27070        1.20980        0.12190
H          2.75620       -2.06360       -0.05610
H          5.03440       -1.02100       -0.97070
H          5.08230       -1.12750        0.85320
H          3.05160        1.86080       -0.75060
H          3.09980        1.75390        1.07460
