10
1101	1
N          1.03990        0.05250       -0.07590
C          2.45170        0.05450       -0.08010
N          3.20470        1.16890       -0.08490
C          4.46530        0.68230       -0.08760
N          4.47150       -0.66740       -0.08460
N          3.20840       -1.05160       -0.07990
H          2.88470       -2.04410       -0.07670
H          0.52090        0.94220       -0.07620
H          0.52240       -0.83810       -0.07270
H          5.35590        1.29610       -0.09180
