8
1120	1
O          0.93500       -0.07580       -0.05530
C          2.28020       -0.05890       -0.05220
C          3.10050        1.04050       -0.05300
N          4.36470        0.57790       -0.04900
N          4.29240       -0.74820       -0.04590
O          3.04380       -1.11910       -0.04790
H          0.42840        0.74840       -0.05840
H          2.81590        2.08410       -0.05620
