9
1102	1
O          0.94610       -0.03610        0.07200
C          2.29140       -0.03100        0.06690
N          3.04610        1.08280        0.06110
C          4.30610        0.59460        0.05760
N          4.31020       -0.75500        0.06120
N          3.04650       -1.13720        0.06700
H          2.72050       -2.12890        0.07090
H          0.44900        0.79360        0.07160
H          5.19750        1.20710        0.05270
