11
1110	1
C          1.08570        0.02200       -0.01850
C          2.57740        0.02520       -0.01480
C          3.40510        1.12290       -0.01570
N          4.67950        0.69020       -0.01140
C          4.58040       -0.65670       -0.00790
O          3.32540       -1.04890       -0.01000
H          0.69300        1.06080       -0.02210
H          0.71520       -0.50190        0.88690
H          0.71970       -0.50650       -0.92300
H          3.10910        2.16370       -0.01930
H          5.42920       -1.32720       -0.00400
