11
1076	1
C          1.06180        0.06780        0.12620
C          2.54790        0.08260       -0.02640
N          3.27080       -0.95340       -0.03960
O          4.52020       -0.59190       -0.18830
C          4.61300        0.79140       -0.27860
O          3.28580        1.19090       -0.16640
H          0.68950       -0.97410        0.22510
H          0.59440        0.53630       -0.76460
H          0.77790        0.64120        1.03280
H          5.03190        1.09300       -1.26170
H          5.21770        1.19930        0.55870
