11
1082	1
O          0.98590        0.06520        0.06710
C          2.33210        0.07150        0.07330
C          3.13260        1.19440        0.07720
C          4.43490        0.73370        0.08300
C          4.36810       -0.64860        0.08240
N          3.08110       -1.04330        0.07640
H          2.73370       -2.02800        0.07450
H          0.48380        0.89220        0.06510
H          2.80890        2.22680        0.07600
H          5.33300        1.33670        0.08730
H          5.21210       -1.32570        0.08600
