12
1088	2
C          1.03350       -0.08050       -0.04370
C          2.52560       -0.06330       -0.03880
C          3.33480        1.05520       -0.03830
C          4.61990        0.55820       -0.03310
N          4.55900       -0.78600       -0.03070
H          5.37210       -1.44060       -0.02670
N          3.29250       -1.17000       -0.03420
H          0.63120        0.95470       -0.04700
H          0.66580       -0.60760        0.86110
H          0.67180       -0.61100       -0.94900
H          3.03070        2.09360       -0.04130
H          5.53620        1.13360       -0.03120
