11
1039	1
N          0.93440        0.11070       -0.13410
N          2.33310        0.06010       -0.02200
C          3.15430        1.12250       -0.01570
C          4.44690        0.66020        0.10680
C          4.33390       -0.71850        0.16990
N          3.03180       -1.05820        0.08830
H          0.56450        0.63440        0.69180
H          0.55710       -0.86400       -0.09780
H          2.83640        2.15410       -0.09430
H          5.35420        1.24780        0.14500
H          5.14580       -1.42630        0.26820
