12
1068	1
F          0.95340        0.06640        0.11670
C          2.30650        0.07650       -0.00220
C          3.03470       -1.00060       -0.08740
C          4.46460       -0.65730       -0.21370
N          4.52080        0.81610       -0.16520
C          3.13210        1.29870       -0.05820
H          2.63620       -2.00670       -0.07160
H          4.86330       -1.04600       -1.17570
H          5.03670       -1.08520        0.63510
H          4.95220        1.18090       -1.04540
H          2.84550        1.91000       -0.94140
H          3.00660        1.88970        0.87240
