12
1079	1
C          0.94890       -0.00430       -0.01410
C          2.44040       -0.10580       -0.01150
N          3.21270        0.91020       -0.00580
N          4.51250        0.51290       -0.00470
C          4.59120       -0.75980       -0.00970
C          3.22410       -1.39350       -0.01520
H          0.62880        1.05930       -0.01060
H          0.54260       -0.50710        0.88790
H          0.54620       -0.50000       -0.92180
H          5.53260       -1.29240       -0.00990
H          3.04170       -1.99560        0.89940
H          3.04560       -1.98800       -0.93550
