8
1113	1
F          0.87210        0.00520        0.06850
C          2.22700        0.00640        0.07410
C          3.04580        1.10730        0.07440
N          4.32260        0.68150        0.08100
C          4.23060       -0.66640        0.08440
O          2.97740       -1.06470        0.08030
H          2.74150        2.14530        0.07020
H          5.08290       -1.33250        0.08990
