14
1077	1
C          0.94880        0.09370       -0.09500
C          2.44500        0.01170       -0.09340
C          3.25380        1.06800       -0.09010
C          4.55880        0.65160       -0.08950
C          4.59620       -0.72140       -0.09250
C          3.21200       -1.28180       -0.09540
H          0.60440        1.14990       -0.09300
H          0.55050       -0.41420        0.80780
H          0.55260       -0.41010       -1.00100
H          2.92780        2.10030       -0.08810
H          5.42940        1.29380       -0.08700
H          5.50690       -1.30540       -0.09280
H          3.01190       -1.88010        0.81830
H          3.01400       -1.87590       -1.01230
