14
1069	1
C          1.01850       -0.07660        0.08120
C          2.51740       -0.08550        0.06520
C          3.25540       -1.14800       -0.00900
C          4.67560       -0.76310        0.00040
O          4.71080        0.65670        0.08900
C          3.36630        1.11780        0.13180
H          0.60940       -1.10790        0.02080
H          0.64330        0.50790       -0.78440
H          0.66190        0.39470        1.02060
H          2.88090       -2.16210       -0.06870
H          5.15950       -1.09800       -0.94120
H          5.17840       -1.21230        0.88270
H          3.16080        1.77300       -0.74110
H          3.17960        1.65870        1.08360
