14
1206	1
F          2.43570       -0.24160       -1.36580
C          2.09000        0.01050       -0.04990
C          2.87220       -0.90220        0.89310
C          4.38460       -0.66820        0.77780
C          5.16690       -1.58090        1.72080
F          4.82110       -1.32880        3.03670
H          1.00230       -0.17580        0.07420
H          2.29530        1.07630        0.18670
H          2.63660       -1.96090        0.64800
H          2.54280       -0.69760        1.93500
H          4.62020        0.39050        1.02290
H          4.71410       -0.87280       -0.26410
H          6.25450       -1.39460        1.59670
H          4.96150       -2.64670        1.48420
