8
1151	1
F          0.85870        0.01130       -0.09190
C          2.21340       -0.00800       -0.08690
C          3.05990        1.07190       -0.08350
N          4.32660        0.61450       -0.07880
O          4.27390       -0.68890       -0.07930
C          3.02940       -1.11200       -0.08410
H          2.78180        2.11720       -0.08430
H          2.72450       -2.14990       -0.08540
