9
1145	1
F          0.95960       -0.02040       -0.08430
C          2.31450       -0.02630       -0.07720
C          3.13740        1.07320       -0.07230
C          4.42430        0.57490       -0.06580
O          4.38350       -0.74120       -0.06670
C          3.12910       -1.13480       -0.07340
H          2.83940        2.11310       -0.07330
H          5.33460        1.15930       -0.06070
H          2.80840       -2.16790       -0.07560
