16
1217	1
C          1.37780       -0.30530       -0.21520
O          2.77080       -0.13120       -0.09210
C          3.04590        0.61170        1.07590
C          4.55330        0.79560        1.20330
O          4.82830        1.53850        2.37130
C          6.22130        1.71210        2.49480
H          1.17980       -0.88970       -1.13710
H          0.85580        0.67060       -0.33040
H          0.96570       -0.89140        0.63620
H          2.68820        0.06940        1.98160
H          2.58000        1.62270        1.01900
H          4.91100        1.33790        0.29760
H          5.01910       -0.21540        1.26020
H          6.41940        2.29680        3.41640
H          6.63400        2.29760        1.64320
H          6.74290        0.73600        2.61050
