8
1169	1
O          0.98960        0.03780        0.09130
C          2.33450        0.04700        0.08620
N          3.08420        1.16430        0.08090
C          4.33920        0.67410        0.07730
O          4.31970       -0.63990        0.08030
N          3.09100       -1.06200        0.08580
H          0.48980        0.86590        0.09130
H          5.23540        1.27970        0.07260
