9
1164	1
N          0.93980        0.05030        0.06130
C          2.35120        0.05590        0.06440
C          3.17070        1.15480        0.06370
O          4.39690        0.68750        0.06750
N          4.37490       -0.61740        0.07040
N          3.11950       -1.04360        0.06860
H          0.41670        0.93780        0.05810
H          0.42600       -0.84250        0.06210
H          2.89070        2.19970        0.06070
