10
1142	1
F          0.84680        0.03440        0.07600
C          2.20170        0.02050        0.08400
C          3.02930        1.12170        0.08890
C          4.32040        0.63120        0.09650
N          4.29700       -0.71620        0.09630
H          5.12760       -1.34860        0.10110
C          3.00620       -1.09670        0.08860
H          2.72900        2.16090        0.08720
H          5.22560        1.22410        0.10190
H          2.67250       -2.12610        0.08660
