20
1197	1
C          0.96500        0.13840        0.07940
C          2.49080        0.13000        0.10120
C          3.05700       -0.66080       -1.08380
C          4.59000       -0.66680       -1.05840
C          5.15620       -1.45760       -2.24350
C          6.68200       -1.46590       -2.22180
H          0.58350        0.71690        0.94710
H          0.57220       -0.89870        0.14310
H          0.59480        0.61250       -0.85450
H          2.83320       -0.32870        1.05450
H          2.85580        1.17950        0.05890
H          2.70750       -0.19880       -2.03360
H          2.68500       -1.70820       -1.03710
H          4.93960       -1.12880       -0.10860
H          4.96200        0.38060       -1.10510
H          4.81370       -0.99900       -3.19670
H          4.79130       -2.50710       -2.20110
H          7.07470       -0.42870       -2.28550
H          7.06350       -2.04430       -3.08940
H          7.05230       -1.93980       -1.28780
