11
1193	1
O          1.02930        0.42080       -0.20640
C          2.41210        0.25450       -0.04160
C          2.99670       -0.65720       -1.12160
O          2.16190       -0.96400       -2.20090
C          3.26760        0.84040       -1.15120
F          4.45750        1.25660       -0.58100
H          0.61910       -0.45620        0.01070
H          2.80200       -0.08800        0.94120
H          3.99900       -1.13570       -1.09940
H          1.62640       -1.74190       -1.90000
H          2.63230        1.58380       -1.67990
