15
1225	1
C          1.68000       -0.96180       -0.29690
C          3.09300       -0.42610       -0.47010
O          3.44470        0.32290        0.67360
C          4.71870        0.92040        0.51310
C          4.56890        2.42640        0.33290
F          3.86290        2.70280       -0.82360
H          1.39100       -1.55640       -1.18930
H          0.96570       -0.11930       -0.17870
H          1.62690       -1.61230        0.60180
H          3.10530        0.21120       -1.38340
H          3.77900       -1.29490       -0.59120
H          5.31610        0.50440       -0.33400
H          5.30940        0.72330        1.43260
H          5.57300        2.89550        0.26300
H          4.03080        2.86040        1.20220
