17
1200	1
C          1.28440        0.19340       -0.50680
C          2.80250        0.10860       -0.37670
C          3.20870       -0.82090        0.77280
C          4.73530       -0.90370        0.89820
C          5.15640       -1.83490        2.03390
F          4.68060       -1.36660        3.24590
H          1.02000        0.87170       -1.34510
H          0.83840        0.59350        0.42870
H          0.85790       -0.81120       -0.71410
H          3.20410        1.12880       -0.19200
H          3.22340       -0.27290       -1.33250
H          2.80080       -1.83850        0.58340
H          2.77960       -0.43460        1.72350
H          5.15210        0.10940        1.08930
H          5.16290       -1.28950       -0.05310
H          6.26480       -1.88180        2.08070
H          4.76630       -2.85990        1.85680
