9
1168	1
N          1.05030       -0.05120       -0.06590
C          2.46140       -0.04670       -0.07050
N          3.21130        1.06970       -0.07410
C          4.46620        0.57870       -0.07760
O          4.44610       -0.73540       -0.07610
N          3.21720       -1.15690       -0.07170
H          0.52940        0.83750       -0.06520
H          0.53500       -0.94310       -0.06330
H          5.36270        1.18390       -0.08120
