16
1178	1
C          0.95810        0.08280       -0.01870
C          2.47270       -0.14260        0.00520
C          3.21630       -0.82920       -1.12720
C          2.36530       -1.49730       -2.21380
C          3.20500        0.70590       -1.03850
O          4.47230        1.14740       -0.64840
H          0.45420       -0.78750        0.44990
H          0.54140        0.23970       -1.03250
H          0.72340        0.98850        0.57820
H          2.99290       -0.15300        0.98780
H          4.08500       -1.38240       -0.70800
H          1.55960       -0.85090       -2.61340
H          1.92340       -2.43340       -1.81350
H          3.02620       -1.75700       -3.06630
H          2.79590        1.09100       -1.99740
H          4.30390        1.92380       -0.05550
