11
1149	1
C          0.92020        0.04700       -0.08270
C          2.41280        0.03870       -0.08060
C          3.25830        1.12300       -0.07910
N          4.52670        0.67070       -0.07740
O          4.47980       -0.63240       -0.07770
C          3.23750       -1.06150       -0.07960
H          0.53790        1.08960       -0.08300
H          0.54400       -0.47490        0.82180
H          0.54660       -0.47450       -0.98850
H          2.97830        2.16800       -0.07930
H          2.93920       -2.10150       -0.08030
