12
1143	1
C          0.94300       -0.08320        0.02120
C          2.43610       -0.08080        0.02510
C          3.26130        1.02070        0.02800
C          4.54860        0.52430        0.03100
O          4.51020       -0.79120        0.03000
C          3.25680       -1.18770        0.02650
H          0.55210        0.95630        0.02090
H          0.56940       -0.60820        0.92500
H          0.57410       -0.60700       -0.88520
H          2.96520        2.06140        0.02790
H          5.45800        1.11020        0.03370
H          2.94050       -2.22250        0.02490
