12
1250	2
F          2.37980        0.49870       -1.37440
C          2.13560        0.09690       -0.07310
C          2.83630        1.02870        0.91060
N          4.27170        1.01490        0.68240
C          5.16890        0.63140        1.62850
O          4.80480        0.26940        2.73720
H          2.49920       -0.94360        0.06440
H          1.04050        0.11970        0.10900
H          2.57700        0.70680        1.94240
H          2.45720        2.06380        0.77130
H          4.62750        1.31370       -0.23810
H          6.22920        0.64530        1.39730
