17
1329	1
C          0.73440        0.57910        1.03130
C          2.23190        0.52630        1.09820
C          2.99730        1.27050        0.28470
C          4.50030        1.21380        0.35010
C          5.07250        2.59310        0.68190
N          6.53070        2.54180        0.71190
H          0.34390       -0.43370        0.80060
H          0.37550        1.28400        0.25080
H          0.33560        0.90500        2.01420
H          2.69260       -0.13450        1.82700
H          2.53400        1.93110       -0.44350
H          4.88440        0.88090       -0.63790
H          4.83850        0.48480        1.11950
H          4.69000        2.93390        1.67040
H          4.75310        3.32310       -0.09430
H          6.83680        1.90790        1.48580
H          6.89180        3.49950        0.92620
