12
1305	1
C          2.54830        1.79610       -1.56880
C          2.55010        1.35590       -0.30130
O          3.56640        0.62200        0.23340
C          4.71260        0.23660       -0.43460
C          5.57180       -0.56570        0.48940
O          6.70210       -0.19380        0.76160
H          1.70740        2.37660       -1.93430
H          3.36750        1.58940       -2.24820
H          1.70080        1.59520        0.33040
H          5.26790        1.13620       -0.78210
H          4.44840       -0.39630       -1.30910
H          5.18970       -1.48550        0.92040
