13
1254	1
F          0.59130       -0.29860        0.08870
C          1.96830       -0.31410       -0.03680
C          2.61060       -0.22160        1.34420
N          4.05100       -0.25070        1.24130
N          4.71650        0.74360        0.55960
C          5.99810        0.74400        0.46160
H          2.28020        0.54580       -0.66660
H          2.27490       -1.25830       -0.53500
H          2.26730       -1.08200        1.95900
H          2.29500        0.71920        1.84420
H          4.57480       -1.01330        1.69990
H          6.49560        1.53990       -0.08150
H          6.59390       -0.04300        0.91530
