12
1334	1
F          2.58080        0.45520       -1.22550
C          2.18790        0.00070        0.02140
C          2.78650        0.87330        1.12100
C          4.29120        0.84250        1.06810
C          5.02080        0.40510        2.09940
F          6.37650        0.39350        2.01460
H          2.51370       -1.05390        0.14810
H          1.07980        0.03900        0.08150
H          2.41380        0.50960        2.10390
H          2.44380        1.92130        0.98690
H          4.79510        1.18670        0.16940
H          4.54450        0.05590        3.01040
