13
1277	1
C          0.99700        1.06730        0.82520
C          2.13430        0.24720        0.23580
O          1.59130       -0.84170       -0.48390
C          2.61600       -1.55100       -1.15090
C          3.33760       -2.44120       -0.23060
N          3.90760       -3.13850        0.49590
H          1.40970        1.91850        1.40700
H          0.38070        0.43560        1.49960
H          0.35420        1.46540        0.01150
H          2.76490       -0.11740        1.07750
H          2.72290        0.92090       -0.42800
H          3.31980       -0.88870       -1.70360
H          2.14150       -2.18530       -1.92790
