11
1298	2
O          2.62990       -0.04500       -1.11620
C          2.17010       -0.01180        0.01460
C          3.05940       -0.00670        1.23210
N          4.47820       -0.04470        0.90900
C          5.42480       -0.04580        1.88170
O          5.11170       -0.01470        3.06270
H          1.09380        0.01480        0.14900
H          2.80090       -0.89300        1.85070
H          2.84090        0.91460        1.81390
H          4.79210       -0.07160       -0.07230
H          6.47520       -0.07450        1.61010
