15
1333	1
C          0.82830       -0.14080        0.02700
C          2.30980        0.06060       -0.09460
C          3.17360       -0.94500        0.11500
C          4.66090       -0.74280       -0.00820
C          5.36050       -1.05250        1.31220
F          5.13740       -2.36740        1.68200
H          0.43030        0.53880        0.80890
H          0.56990       -1.18630        0.30050
H          0.34590        0.10160       -0.94250
H          2.67630        1.04860       -0.35850
H          2.80310       -1.93230        0.37810
H          4.89990        0.30420       -0.29800
H          5.05080       -1.41830       -0.79900
H          4.98780       -0.37700        2.11170
H          6.45380       -0.89570        1.19670
