15
1238	1
C          1.13890        0.03480        0.01880
N          2.60130        0.03170        0.06640
C          3.09970       -1.21010        0.66720
C          4.63400       -1.22100        0.65420
C          5.22400       -2.47510        1.24190
O          4.51420       -3.36940        1.67680
H          0.78850        0.98090       -0.44480
H          0.70940       -0.03800        1.04230
H          0.76980       -0.80960       -0.60240
H          2.91140        0.84350        0.65090
H          2.73250       -2.08210        0.08050
H          2.73700       -1.29890        1.71680
H          5.01210       -0.35340        1.23640
H          4.98840       -1.12730       -0.39480
H          6.30250       -2.58560        1.27910
