15
1263	1
C          0.59690        0.01620        0.29480
C          2.12100        0.05760        0.23260
C          2.60590        0.61290       -1.10550
O          3.98060        0.63410       -1.12290
N          4.62940        1.07580       -2.18060
C          5.91170        1.09430       -2.19400
H          0.27560       -0.39090        1.27660
H          0.19510       -0.63620       -0.50950
H          0.17780        1.03860        0.17930
H          2.51750       -0.97190        0.37050
H          2.50030        0.69900        1.05770
H          2.21890        1.64640       -1.24550
H          2.23610       -0.02970       -1.93480
H          6.43670        1.45980       -3.06950
H          6.47890        0.74670       -1.33510
