16
1280	1
C          1.19560       -0.29840        0.12870
C          2.70030       -0.09450        0.05010
C          3.06650        0.97990       -0.97360
C          4.57830        1.19690       -1.03780
C          4.92290        2.23070       -2.02490
C          5.20600        3.07490       -2.83090
H          0.95600       -1.07480        0.86200
H          0.79030       -0.60860       -0.83970
H          0.69060        0.62380        0.43340
H          3.17850       -1.04340       -0.21910
H          3.07640        0.18950        1.03990
H          2.56760        1.92230       -0.71310
H          2.69100        0.68810       -1.96290
H          5.07820        0.25780       -1.30220
H          4.95330        1.49450       -0.05160
H          5.45610        3.82410       -3.54610
