13
1265	1
O          0.12750        0.49870       -0.49660
C          1.35750        0.20720        0.10510
C          2.48140        0.47270       -0.88770
O          3.69240        0.18800       -0.30190
N          4.81380        0.34350       -0.97490
C          5.94190        0.07690       -0.42610
H         -0.56500        0.30990        0.18870
H          1.38610       -0.86460        0.40440
H          1.50360        0.85610        0.99770
H          2.45940        1.54100       -1.19630
H          2.34260       -0.16850       -1.78580
H          6.85970        0.20810       -0.98840
H          5.98780       -0.28000        0.59890
