10
1299	2
O          2.63980       -0.45210       -1.03520
C          2.11710        0.02210       -0.03690
N          2.86540        0.57560        0.94920
C          4.31150        0.63270        0.86870
C          4.87360        1.26760        2.07130
N          5.30700        1.76840        3.02110
H          1.03840        0.00070        0.06390
H          2.37900        0.96230        1.77220
H          4.60710        1.21750       -0.02750
H          4.71790       -0.39680        0.78500
