11
1407	1
O          0.95230       -0.82590        0.05620
N          2.32340       -0.93380        0.31610
C          2.97600       -0.68050       -0.77360
C          4.47870       -0.70540       -0.80730
C          4.96000       -1.66960       -1.76840
C          5.35680       -2.46440       -2.56050
H          0.55680       -1.05600        0.91810
H          2.45560       -0.41990       -1.71310
H          4.86140       -0.92660        0.19450
H          4.81440        0.30130       -1.07840
H          5.71230       -3.17940       -3.26680
