9
1400	1
O          0.71140       -0.08590       -0.29960
N          1.94870       -0.10340        0.14690
C          2.53240        0.98750        0.48570
O          3.80720        0.94900        0.94330
C          4.50550        2.04880        1.32460
O          4.00900        3.16480        1.27460
H          0.27730       -0.91140       -0.55320
H          2.00020        1.93330        0.40290
H          5.52340        1.93410        1.68020
