14
1367	1
C          0.63420        0.09160       -0.08450
C          2.10170       -0.04840        0.19280
C          3.01900        0.60060       -0.54120
C          4.48950        0.45970       -0.26390
C          5.06860        1.79840        0.07340
O          5.95080        2.28150       -0.61820
H          0.21020       -0.90650       -0.32020
H          0.43370        0.77320       -0.93880
H          0.12900        0.49540        0.81730
H          2.41350       -0.69310        1.00980
H          2.70460        1.24450       -1.35860
H          4.98330        0.04300       -1.16820
H          4.67980       -0.23110        0.58590
H          4.70530        2.34310        0.93920
