12
1417	1
C          0.90010        0.03940       -0.07460
C          2.36300        0.04070       -0.07310
C          3.56880        0.04210       -0.07150
C          5.03280        0.04270       -0.07080
C          5.52570        0.95470        0.96330
C          5.93320        1.70530        1.81440
H          0.53100       -1.00650       -0.10270
H          0.53050        0.58580       -0.96660
H          0.52880        0.53790        0.84440
H          5.40220        0.37500       -1.06290
H          5.40220       -0.98310        0.13480
H          6.29070        2.36410        2.56150
