15
1353	2
C          0.04130        0.02500        0.67180
N          1.48100        0.08780        0.61480
C          2.22370        0.60540        1.70620
N          3.50770        0.65590        1.64250
N          4.25710        1.15240        2.68440
C          5.69250        1.19350        2.57800
H         -0.35630       -0.40720       -0.27080
H         -0.37570        1.04590        0.80320
H         -0.27470       -0.61550        1.52230
H          1.97240       -0.24710       -0.22800
H          1.70290        0.95790        2.59380
H          3.80120        1.49690        3.54430
H          6.08650        0.16570        2.43290
H          6.12980        1.62130        3.50490
H          5.98560        1.82610        1.71410
