13
1382	3
C          0.96520        0.18440       -0.14230
N          2.38970        0.41880       -0.23090
C          3.06160        0.97810        0.71530
N          4.46360        1.17600        0.55620
C          5.31460        1.78340        1.53210
N          4.88600        2.21660        2.66690
H          0.76820       -0.90330       -0.23830
H          0.45630        0.71520       -0.97320
H          0.53830        0.53970        0.82140
H          2.55220        1.29000        1.61840
H          4.90070        0.86080       -0.32290
H          6.37110        1.88420        1.30610
H          3.90580        2.16340        2.96520
