12
1427	2
N          0.85500       -0.07990       -0.02310
N          2.22910       -0.04850        0.01510
C          2.91270        0.46980       -0.94320
C          4.37970        0.48670       -0.87000
N          5.06330        1.00500       -1.82830
N          6.43750        1.03650       -1.79010
H          0.33330       -0.50110        0.75810
H          0.33490        0.31220       -0.82300
H          2.41360        0.89710       -1.81000
H          4.87880        0.05940       -0.00320
H          6.95910        1.45770       -2.57130
H          6.95750        0.64440       -0.99020
