13
1347	1
C          1.87770       -0.43760        0.52560
O          3.19220       -0.24070        0.05710
C          3.17720        0.70140       -0.99630
C          4.56340        0.95240       -1.53680
C          5.66070        0.34690       -1.06290
F          6.87390        0.62840       -1.60540
H          1.90890       -1.17940        1.34980
H          1.22340       -0.86110       -0.26860
H          1.45320        0.50030        0.94780
H          2.78630        1.68040       -0.63780
H          2.56060        0.32730       -1.84460
H          4.67080        1.66170       -2.35220
H          5.60610       -0.36910       -0.24990
