13
1422	1
C          0.99060        0.05170        0.00250
C          2.48580        0.10110        0.11370
C          3.22870       -1.01430        0.07610
C          4.69630       -0.94760        0.18670
N          5.38980       -2.02690        0.14850
O          6.70080       -1.97980        0.24640
H          0.67030        0.64150       -0.88120
H          0.54150        0.49500        0.91540
H          0.61420       -0.98790       -0.10920
H          2.96440        1.07020        0.22710
H          2.75160       -1.98440       -0.03720
H          5.19180        0.01420        0.30070
H          7.21740       -2.79620        0.21690
