13
1366	1
F          0.80310       -1.31130        0.26080
C          2.15910       -1.30370        0.18080
C          2.88310       -0.76880        1.16930
C          4.38510       -0.73870        1.12060
C          4.94090       -1.51030        2.28450
C          5.71800       -0.93060        3.20450
H          2.64040       -1.73560       -0.69140
H          2.37550       -0.34290        2.03020
H          4.71460        0.32280        1.14420
H          4.76910       -1.19550        0.18270
H          4.70540       -2.56660        2.37810
H          5.97250        0.12290        3.13930
H          6.10440       -1.51550        4.03280
