10
1426	1
O          1.01310        0.00200       -0.01260
N          2.32770        0.05020       -0.01630
C          2.96980        0.35040        1.05350
C          4.44200        0.40090        1.03570
C          5.13290        0.71070        2.13580
F          6.49020        0.75120        2.09600
H          0.53540       -0.22480       -0.82170
H          2.42760        0.56720        1.97150
H          4.97400        0.18280        0.11390
H          4.62270        0.93240        3.06860
