11
1485	1
C          2.64390        0.94490        0.58560
O          3.76110        0.41260       -0.01010
N          3.66720       -0.21830       -1.16230
C          4.71190       -0.71540       -1.71770
C          4.59630       -1.41690       -3.00240
O          5.58830       -1.89020       -3.53190
H          2.93420        1.43000        1.54010
H          1.90760        0.14070        0.79770
H          2.18390        1.70470       -0.08140
H          5.68430       -0.61950       -1.24060
H          3.62940       -1.51720       -3.48560
