8
1527	1
F          1.00400        0.02860        0.06140
C          2.38560        0.02240        0.06570
C          2.88120        1.15730       -0.71350
C          3.28900        2.09250       -1.35560
C          3.76580        3.18800       -2.10770
N          4.15630        4.08590       -2.72420
H          2.75230       -0.92340       -0.38370
H          2.75230        0.10200        1.10970
