12
1478	1
O          1.60560       -0.23270       -1.29330
C          2.51680        0.21620       -0.32900
C          2.50400       -0.70020        0.85590
N          3.58000       -1.29780        1.22300
N          3.57390       -2.13860        2.30820
C          4.64880       -2.73580        2.67420
H          2.03600       -0.99880       -1.75600
H          2.21490        1.23220       -0.00020
H          3.53620        0.30150       -0.77120
H          1.57600       -0.85380        1.40140
H          4.63190       -3.39770        3.53300
H          5.57900       -2.58630        2.13280
