14
1512	1
N          1.09180        0.07110       -0.04760
C          2.54680        0.05840       -0.02630
C          3.02810       -1.08260        0.71640
C          3.42480       -2.02300        1.32850
C          3.90620       -3.16400        2.07120
N          2.82060       -4.09940        2.32270
H          0.77160        0.92540       -0.49600
H          0.74840        0.09670        0.91080
H          2.90990        0.98800        0.42480
H          2.91840        0.02950       -1.05560
H          4.33570       -2.84300        3.02610
H          4.69720       -3.67710        1.51490
H          2.07810       -3.61510        2.82430
H          3.15190       -4.84050        2.93450
