12
1458	1
C          4.75300        1.27310        0.20410
O          5.21730        0.57730       -0.88510
N          4.44100       -0.28630       -1.50640
C          4.87640       -0.93620       -2.52460
C          3.99360       -1.91640       -3.22830
F          3.83960       -1.53210       -4.54670
H          5.55390        1.94310        0.57880
H          4.46540        0.56630        1.01130
H          3.87330        1.88680       -0.08460
H          5.89070       -0.77890       -2.88230
H          2.99360       -1.96830       -2.74650
H          4.46110       -2.92220       -3.19300
