15
1464	1
N          1.65190        0.43140       -0.99210
C          2.60070       -0.16010       -0.05620
C          3.03340        0.87130        0.94870
C          4.32080        1.21900        1.08720
C          4.72390        2.23740        2.07880
C          6.00420        2.58800        2.22130
H          1.34340       -0.30790       -1.66420
H          2.13500        1.17960       -1.54120
H          3.46750       -0.57600       -0.61810
H          2.10750       -0.99410        0.48720
H          2.27460        1.33910        1.57080
H          5.07970        0.75060        0.46470
H          3.97220        2.71240        2.70370
H          6.77960        2.13250        1.61230
H          6.28170        3.33860        2.95430
