10
1486	1
C          1.03730       -0.11930       -0.14360
O          2.36510        0.16850       -0.20470
N          2.79830        1.27100        0.35920
C          4.03380        1.57060        0.31940
C          4.47390        2.77940        0.94220
N          4.83500        3.75540        1.44400
H          0.82460       -1.07150       -0.66200
H          0.47940        0.70110       -0.62760
H          0.74550       -0.19970        0.91800
H          4.73140        0.91900       -0.17790
