10
1504	1
O          1.08800        0.11970        0.12050
C          2.31160        0.05770        0.07890
C          3.00850       -1.19450        0.37740
C          4.34860       -1.23480        0.32490
C          5.05890       -2.42860        0.60510
C          5.65330       -3.43920        0.84260
H          2.91680        0.92820       -0.18080
H          2.40810       -2.06170        0.63430
H          4.93280       -0.35920        0.06630
H          6.18100       -4.32790        1.05120
