9
1534	1
C          0.90390        0.04620        0.00340
C          2.24080        0.05660        0.00540
C          2.97050        1.25320        0.23200
C          3.57750        2.27160        0.42480
C          4.33620        3.58000        0.67260
N          4.90730        4.57260        0.86050
H          0.35620       -0.87370       -0.17080
H          0.32260        0.94830        0.17430
H          2.79440       -0.86150       -0.16840
