14
1448	1
C          3.47560        1.17120        0.53260
O          2.73480        0.07090        0.14920
C          3.24780       -1.12760       -0.24840
C          4.57050       -1.37690       -0.31230
C          5.09090       -2.71540       -0.75720
O          5.91490       -2.55950       -1.87890
H          2.78480        1.99660        0.80110
H          4.12200        1.51120       -0.30460
H          4.09570        0.92750        1.42160
H          2.54820       -1.91070       -0.52440
H          5.29390       -0.61480       -0.04310
H          4.27440       -3.44000       -0.98130
H          5.69320       -3.15340        0.06560
H          5.31250       -2.41570       -2.65520
