12
1482	2
C          0.93480       -0.15270       -1.27020
N          1.94240       -0.02330       -0.24960
N          1.63350       -0.31950        1.05830
C          2.51060       -0.21430        1.99310
C          2.14630       -0.53860        3.37810
O          2.97560       -0.44000        4.26750
H          1.35770        0.12580       -2.25860
H          0.08080        0.51810       -1.03990
H          0.57770       -1.20300       -1.31230
H          2.89090        0.29150       -0.50880
H          3.52270        0.11360        1.76790
H          1.13940       -0.86700        3.61600
