15
1455	1
C          2.19190        1.64440        0.45270
C          2.74490        0.39230       -0.21740
C          2.72500       -0.76580        0.73510
N          3.81700       -1.36200        1.05280
O          3.80190       -2.37990        1.88820
C          4.96920       -3.01790        2.22970
H          2.20630        2.48930       -0.26770
H          2.81300        1.91600        1.33310
H          1.14420        1.47640        0.78250
H          3.78340        0.59370       -0.56110
H          2.12200        0.14170       -1.10210
H          1.77830       -1.09880        1.15360
H          4.74260       -3.84080        2.93830
H          5.66430       -2.30170        2.71710
H          5.44840       -3.44330        1.32230
