12
1466	1
O          2.17470        0.80910       -1.13790
C          2.83950       -0.01810       -0.22590
C          2.97800        0.70880        1.08060
C          4.17920        0.95930        1.62140
C          4.29520        1.67350        2.90420
O          5.39600        1.89310        3.38220
H          2.05050        0.26810       -1.96060
H          3.83590       -0.29920       -0.63580
H          2.24190       -0.93850       -0.04440
H          2.07480        1.03410        1.59060
H          5.08530        0.63590        1.11560
H          3.40690        2.00810        3.43160
