11
1525	1
F          0.90850        0.03590        0.06850
C          2.29010        0.03360        0.06400
C          2.78230        1.22070        0.76340
C          3.18750        2.19900        1.34000
C          3.66980        3.36810        2.03050
C          4.71400        4.05250        1.56130
H          2.65630        0.04260       -0.98320
H          2.65980       -0.87790        0.57700
H          3.17550        3.69150        2.94080
H          5.22060        3.74290        0.65130
H          5.06770        4.93150        2.09040
