13
1468	1
F          3.41320        0.87690        0.68880
C          2.34820        0.18020        0.14290
C          2.78810       -1.04390       -0.61450
C          4.07820       -1.39710       -0.73150
C          4.46070       -2.60890       -1.48600
C          5.74150       -2.96640       -1.60670
H          1.79790        0.85360       -0.54640
H          1.66620       -0.12740        0.96250
H          2.01970       -1.65590       -1.07940
H          4.85620       -0.79400       -0.27160
H          3.69390       -3.22230       -1.95160
H          6.53190       -2.37520       -1.15350
H          6.00430       -3.85940       -2.16440
