10
1530	1
O          1.08690        0.03660       -0.02790
C          2.50760        0.03760       -0.03020
C          2.98900       -0.50080        1.22030
C          3.38570       -0.94450        2.25090
C          3.85250       -1.46660        3.46370
C          4.24570       -1.90620        4.48470
H          0.76900        0.39960       -0.87110
H          2.86590        1.05180       -0.15200
H          2.86590       -0.57110       -0.85060
H          4.58440       -2.28530        5.36530
