14
1481	1
C          3.23500        1.03280       -0.99340
N          4.30900        0.55180       -0.16360
N          4.03150       -0.25980        0.91250
C          4.96790       -0.70700        1.67240
C          4.63130       -1.57350        2.81510
C          5.58310       -2.05220        3.61960
H          3.64050        1.66910       -1.80820
H          2.52990        1.63380       -0.38160
H          2.69410        0.17270       -1.44100
H          5.28110        0.82070       -0.38420
H          6.00640       -0.44910        1.47560
H          3.59270       -1.82780        3.00750
H          6.62930       -1.81420        3.45070
H          5.31520       -2.68910        4.45640
