16
1564	1
C          1.20140        0.19810       -0.17580
C          2.66570       -0.14440        0.08050
C          3.22790       -1.03860       -1.03340
C          4.62100       -1.56490       -0.76280
C          3.93670       -2.90820       -0.88550
O          2.66230       -2.32620       -1.02580
H          0.82450        0.85310        0.63780
H          0.58590       -0.72620       -0.20120
H          1.09460        0.73440       -1.14280
H          2.74940       -0.65780        1.06360
H          3.25390        0.79770        0.11960
H          3.14570       -0.59310       -2.05150
H          4.95410       -1.39960        0.28580
H          5.34440       -1.36010       -1.58140
H          4.00600       -3.51510        0.04390
H          4.21020       -3.44190       -1.82310
