14
1575	1
C          2.40950        0.45290       -1.20150
C          2.22270       -0.14430       -0.02230
C          3.08240        0.20750        1.16200
C          2.81990        1.55470        1.79020
O          2.58580        0.97590        3.05400
C          2.62250       -0.31990        2.50010
H          1.78510        0.18870       -2.04870
H          3.18290        1.20500       -1.32610
H          1.44440       -0.89540        0.07600
H          4.17530        0.03840        1.03600
H          1.87860        2.03630        1.43890
H          3.71450        2.21490        1.78480
H          1.58760       -0.73180        2.49350
H          3.38030       -0.96790        2.99220
