17
1596	1
C          1.10420        0.13430        0.13940
N          2.56700        0.13280        0.11050
C          3.06470        0.81650       -1.08760
C          4.59680        0.89880       -1.04280
C          5.27220       -0.39560       -1.44640
C          5.35630        0.83950       -2.35460
H          0.75380       -0.39560        1.05020
H          0.68980       -0.38460       -0.75300
H          0.71960        1.17630        0.17830
H          2.89330       -0.86210        0.09620
H          2.67970        1.85920       -1.11080
H          2.70750        0.29290       -2.00460
H          5.10610        1.32900       -0.15320
H          4.73380       -1.15180       -2.05720
H          6.31960       -0.58160       -1.12840
H          4.62160        0.95550       -3.18030
H          6.19820        1.55450       -2.23490
