13
1632	1
O          1.99420        0.32990        2.19050
C          2.59440       -0.66600        1.81940
C          3.10670       -0.76330        0.41600
N          4.56580       -0.98090        0.44720
C          5.19860       -0.62280       -0.84250
C          5.33400        0.27830        0.30650
H          2.75630       -1.48560        2.51210
H          2.79960        0.14350       -0.15780
H          2.62630       -1.64070       -0.06620
H          4.46800       -0.34800       -1.63580
H          6.05890       -1.29770       -1.03310
H          4.69630        1.18880        0.34600
H          6.28060        0.19590        0.88010
