16
1613	1
N          1.06420       -0.26560        0.15980
C          2.52140       -0.18330        0.16040
C          3.04790       -0.05450        1.58970
N          4.51900        0.06990        1.56330
C          5.10320       -0.17720        2.90080
C          5.21290       -1.20520        1.86200
H          0.73870       -0.36710       -0.82840
H          0.66920        0.62820        0.53280
H          2.84700        0.69520       -0.44160
H          2.93830       -1.10450       -0.30090
H          2.68080       -0.92090        2.18880
H          2.62620        0.86850        2.04410
H          4.34060       -0.32420        3.69840
H          5.99210        0.47340        3.03990
H          4.52940       -2.08100        1.90750
H          6.17700       -1.23750        1.31300
