18
1592	1
C          3.06730        1.59530       -0.68790
C          2.83440        0.28860        0.07020
C          3.36660       -0.93510       -0.68550
C          4.89510       -0.88010       -0.84400
C          5.38640       -1.97980       -1.76680
C          5.47970       -0.51450       -2.19770
H          2.63990        2.44060       -0.10860
H          2.57120        1.55760       -1.68100
H          4.15250        1.78250       -0.82780
H          1.74030        0.16190        0.21960
H          3.31680        0.35030        1.07010
H          2.84890       -1.01400       -1.66770
H          3.11430       -1.84360       -0.09690
H          5.53970       -0.89410        0.06140
H          4.71400       -2.43870       -2.52320
H          6.44370       -2.31320       -1.70010
H          4.66040       -0.06470       -2.79850
H          6.38910        0.07650       -1.95790
