10
1538	1
C          0.95130       -0.03940       -0.09280
C          2.28720       -0.05650       -0.07930
C          3.00490       -1.04340        0.67620
C          3.60900       -1.88180        1.31790
C          4.34650       -2.87500        2.07820
C          4.93910       -3.72460        2.72860
H          0.42160        0.71110       -0.66690
H          0.36600       -0.76560        0.46340
H          2.85510        0.67510       -0.63840
H          5.48880       -4.45430        3.28710
