15
1545	1
F          1.02480        0.25740       -0.13870
C          2.39370        0.10750       -0.01630
C          2.89670       -0.88760       -1.05860
C          4.35770       -1.33070       -0.96830
C          3.88620       -2.71300       -1.42750
C          2.49660       -2.35470       -0.89400
H          2.62970       -0.24540        1.01000
H          2.88210        1.09110       -0.17810
H          2.67780       -0.56290       -2.10420
H          4.65850       -1.40680        0.10370
H          5.11870       -0.79550       -1.57460
H          4.39850       -3.61520       -1.03120
H          3.84560       -2.72020       -2.54280
H          2.46580       -2.61300        0.19120
H          1.60210       -2.73040       -1.43450
