14
1615	1
F          0.80850        0.25770       -0.49440
C          2.18630        0.36430       -0.54580
C          2.80630       -1.02170       -0.67160
N          4.27810       -0.90610       -0.67240
C          4.91670       -2.12660       -1.21500
C          4.85410       -0.91470       -2.03770
H          2.54520        0.85860        0.38200
H          2.46830        0.98790       -1.42060
H          2.39220       -1.51740       -1.58110
H          2.49910       -1.62630        0.20890
H          4.19500       -2.94390       -1.43900
H          5.87680       -2.30700       -0.68800
H          4.08660       -0.85710       -2.84040
H          5.77140       -0.29010       -2.05280
