12
1580	1
N          0.94300       -0.08240        0.24140
C          2.09860       -0.04060        0.19590
C          3.57050        0.01430        0.13670
C          4.20640        1.10410        0.98110
C          5.14860       -0.00910        1.40200
N          4.25490       -1.05060        0.88320
H          3.95870        0.02480       -0.90890
H          3.55350        1.33990        1.85260
H          4.63900        1.98720        0.46490
H          5.36930       -0.06500        2.49210
H          6.07240       -0.00280        0.77700
H          3.65080       -1.35100        1.68590
