12
1589	1
C          0.96370        0.05150        0.19600
C          2.16750        0.05150        0.13060
C          3.63650        0.05150        0.04930
C          4.30080        1.05730        0.96280
O          4.95150        0.05140        1.70100
C          4.30080       -0.95440        0.96280
H         -0.09300        0.05150        0.25360
H          4.07740        0.05150       -0.97140
H          3.59600        1.60700        1.62790
H          5.03440        1.69910        0.42720
H          3.59600       -1.50410        1.62790
H          5.03440       -1.59620        0.42720
