12
1701	1
O          1.00180        0.00980        0.00280
C          2.39660       -0.08630        0.01770
C          3.04070       -0.53890       -1.28400
C          2.95080        0.94750       -0.95580
C          4.33700        1.46530       -0.70160
O          5.19480        1.38950       -1.56730
H          0.67760       -0.91660        0.14210
H          2.91090        0.08890        0.98770
H          2.22970       -1.00910       -1.88130
H          3.89800       -1.15970       -0.94450
H          2.36410        1.38310       -1.79310
H          4.57400        1.92690        0.25100
