12
1720	1
O          1.11920        0.08830       -0.01510
C          2.50860       -0.01650        0.09360
C          3.24220       -0.59660       -1.11630
C          3.11750        0.90790       -0.94800
C          4.42600        1.49170       -0.61990
C          5.48510        1.99920       -0.34710
H          0.76410       -0.70950        0.45300
H          2.96500        0.26500        1.06790
H          2.47330       -1.13970       -1.70810
H          4.08840       -1.16220       -0.66910
H          2.56700        1.27370       -1.84100
H          6.41530        2.44340       -0.10770
