15
1712	1
C          1.10520       -0.13900       -0.12830
N          2.57550       -0.07700       -0.08510
C          3.21800       -0.64630       -1.29460
C          3.07490        0.81670       -1.14620
C          4.36700        1.49350       -0.79070
C          5.40300        1.49820       -1.63420
H          0.77070       -1.08050        0.35470
H          0.67050       -0.10250       -1.15400
H          0.69000        0.71010        0.45400
H          2.48170       -1.22790       -1.89280
H          4.15890       -1.13430       -0.96030
H          2.38900        1.22260       -1.92300
H          4.45390        1.99900        0.16620
H          5.33540        1.00540       -2.59950
H          6.32510        1.99920       -1.35820
