17
1730	1
C          1.04780       -0.11660       -0.17310
N          2.45570        0.08640        0.20400
C          2.74760        1.52980        0.23440
C          2.71950       -0.60930        1.48880
C          4.09720       -1.25750        1.32610
C          3.89260       -0.22710        2.40520
H          0.83930        0.34440       -1.16290
H          0.36260        0.32460        0.58540
H          0.82760       -1.20140       -0.27410
H          2.42880        2.01300       -0.71480
H          3.84170        1.70220        0.29300
H          2.22890        2.02700        1.08370
H          2.08960       -1.50280        1.70170
H          4.86180       -0.80090        0.66110
H          4.34150       -2.18880        1.88110
H          4.16700        0.83090        2.25010
H          3.58120       -0.56290        3.41730
