17
1691	1
C          3.29710       -0.96820        0.42370
C          2.43880        0.05170       -0.31540
C          3.24090        1.32740       -0.58730
C          2.46110        2.56420       -0.71000
N          3.20250        2.26570        0.54940
C          4.45510        3.03310        0.65550
H          2.70910       -1.89390        0.59800
H          3.62010       -0.56030        1.40530
H          4.19510       -1.22480       -0.17800
H          1.53060        0.26330        0.29200
H          2.11760       -0.38070       -1.28680
H          4.20000        1.28000       -1.15120
H          1.37440        2.53100       -0.48370
H          2.90050        3.42890       -1.25500
H          4.24170        4.00430        1.14840
H          4.95450        3.24200       -0.31870
H          5.16740        2.47310        1.29650
