17
1683	1
C          1.20830       -0.36380        0.10100
C          2.65150        0.10970       -0.02010
C          3.02950        0.96960        1.19660
N          4.24620        1.79400        0.99690
C          2.90510        2.41660        1.05810
C          2.71740        3.21250        2.34630
H          0.94940       -1.00010       -0.77130
H          0.52000        0.50810        0.12390
H          1.07380       -0.95900        1.02940
H          2.76090        0.67120       -0.97440
H          3.32340       -0.77420       -0.05560
H          3.02660        0.52410        2.21480
H          4.53960        1.77740       -0.00750
H          2.60770        2.86050        0.08120
H          3.13190        2.68560        3.23330
H          1.63410        3.38920        2.50950
H          3.22850        4.19260        2.24760
