13
1641	1
F          1.00230       -0.13960       -0.18880
C          2.35860       -0.07080       -0.16470
C          3.00990        0.62700       -1.10130
C          4.51320        0.73500       -1.10260
C          5.12650       -0.65690       -1.23690
C          5.24770        0.33680       -2.37620
H          2.90350       -0.58560        0.62100
H          2.44490        1.14170       -1.87250
H          5.02140        1.18550       -0.22320
H          4.55410       -1.50030       -1.68090
H          6.17350       -0.82340       -0.90540
H          4.49530        0.32950       -3.19490
H          6.11760        1.02620       -2.41940
