14
1678	1
C          1.23150       -0.44420        0.09470
N          2.55990        0.11030       -0.15370
C          2.96660        0.92910        0.99720
C          4.30330        1.58840        0.68390
C          3.04620        2.43880        0.79840
F          2.81770        3.02780        2.02940
H          0.93040       -1.07950       -0.76480
H          0.48260        0.37010        0.21430
H          1.24070       -1.08010        1.00670
H          2.51990        0.66660       -1.04070
H          3.14190        0.39810        1.95830
H          4.63350        1.74620       -0.36500
H          4.95550        1.92100        1.51990
H          2.35800        2.68360       -0.03810
