16
1684	1
C          0.93900        0.05280       -0.06580
C          2.44700        0.23500        0.13560
N          3.27780       -0.71840       -0.63920
C          3.21950        0.71440       -1.00510
C          4.53730        1.42660       -0.69250
N          4.31900        2.86710       -0.63330
H          0.59130       -0.81330        0.53460
H          0.66600       -0.11570       -1.13010
H          0.41580        0.96490        0.28840
H          2.85820        0.36970        1.15880
H          2.68840       -1.24320       -1.32660
H          2.72050        0.87220       -1.98830
H          5.27300        1.19050       -1.49240
H          4.96380        1.08370        0.27680
H          3.99620        3.20420       -1.56950
H          5.23150        3.33290       -0.42460
