14
1717	1
C          1.00320       -0.04440        0.06500
C          2.50870       -0.15730        0.32290
C          3.39700       -0.91140       -0.78070
N          3.30800        0.49510       -0.64010
N          2.76460        1.27010       -1.63960
C          3.30990        2.38390       -1.96900
H          0.47080       -0.75220        0.73310
H          0.73930       -0.29420       -0.98510
H          0.66100        0.98640        0.29470
H          2.90570        0.07120        1.33370
H          2.94840       -1.20140       -1.75600
H          4.45000       -1.18410       -0.56300
H          2.87280        2.98520       -2.75830
H          4.20720        2.73270       -1.46520
