16
1679	1
C          2.66900        1.09060        0.02910
O          2.14330       -0.20460       -0.12590
C          2.89880       -1.07040        0.68350
C          2.71980       -2.49700        0.13950
C          4.04510       -1.78300       -0.01630
C          5.17220       -2.11660        0.96150
H          2.07530        1.78570       -0.59930
H          3.72230        1.14750       -0.32690
H          2.57530        1.44110        1.08170
H          2.58480       -1.16760        1.74580
H          2.33810       -2.64670       -0.89340
H          2.88440       -3.36440        0.81450
H          4.28090       -1.28550       -0.98230
H          4.79430       -2.53530        1.91960
H          5.75230       -1.19590        1.18100
H          5.84920       -2.86020        0.49270
