11
1702	1
O          0.97680        0.03730       -0.07820
C          2.36450       -0.06110        0.06270
C          3.08310       -0.78360       -1.07390
C          3.06520        0.73670       -1.02200
C          4.34120        1.33440       -0.61450
N          5.34390        1.81650       -0.28900
H          0.60300       -0.61160        0.57010
H          2.83550       -0.03530        1.07060
H          2.38350       -1.22050       -1.81790
H          4.00510       -1.28230       -0.70050
H          2.42270        1.20420       -1.79850
