17
1660	1
C          0.93870        0.13870       -0.25020
C          2.45730        0.21060       -0.09310
C          3.18350       -0.86140       -0.91100
C          3.26330        0.61810       -1.30670
C          4.55130        1.37600       -0.95870
N          4.24790        2.77800       -0.69420
H          0.54670       -0.70750        0.35170
H          0.62600       -0.00160       -1.30770
H          0.49210        1.08150        0.12770
H          2.90760        0.27570        0.92090
H          2.66910       -1.36900       -1.75530
H          4.19140       -1.18770       -0.57680
H          2.62990        0.94720       -2.15970
H          5.25250        1.30060       -1.81830
H          5.05420        0.94040       -0.06650
H          3.85260        3.21270       -1.55980
H          5.14020        3.27400       -0.46830
