15
1728	1
C          2.26210        1.21980       -0.90820
C          2.48370        0.00680       -0.01260
F          1.26880       -0.37570        0.53700
C          3.14650       -1.12620       -0.81940
C          3.10580       -2.45620       -0.09360
C          2.29690       -2.25090       -1.38240
H          1.81160        2.04510       -0.31730
H          1.57570        0.96100       -1.74270
H          3.22890        1.57110       -1.32810
H          3.16540        0.29480        0.81630
H          4.17210       -0.97530       -1.22140
H          2.33350       -2.67700        0.67360
H          3.84960       -3.23760       -0.35720
H          1.23780       -1.92180       -1.33120
H          2.75920       -2.49230       -2.36330
