14
1796	1
C          0.29090       -1.40300        0.26710
C         -1.06940       -0.95060       -0.26410
C         -1.31950        0.47460        0.18480
C         -0.30570        1.36210        0.17250
C          1.06560        0.90520       -0.17410
C          1.34510       -0.41290       -0.18410
H          0.55510       -2.43460       -0.04780
H          0.23850       -1.37970        1.37800
H         -1.89910       -1.61740        0.05260
H         -1.01430       -0.96540       -1.37500
H         -2.31510        0.78470        0.48600
H         -0.48600        2.40320        0.41980
H          1.83390        1.63000       -0.42320
H          2.32770       -0.76210       -0.48530
