13
1750	1
N          2.25850       -1.40920        0.15060
C          2.35700        0.00140        0.03040
N          1.77230        0.76050        0.89010
C          3.16810        0.58160       -1.11430
C          2.43610        1.27770       -2.17310
N          3.18230        2.06490       -1.17480
H          1.71930       -1.83590        0.91820
H          2.72860       -2.02140       -0.53170
H          1.22450        0.36540        1.66860
H          4.21030        0.23410       -1.27320
H          1.33790        1.42530       -2.05780
H          2.94840        1.34330       -3.15510
H          2.46930        2.51820       -0.55990
