14
1738	1
C          1.03890        0.00970       -0.06490
C          2.55460       -0.19200        0.02300
O          3.10440       -0.39110       -1.25800
C          3.21660        0.97350        0.78550
C          4.61990        1.32110        0.45720
O          3.51770        2.07360       -0.02500
H          0.57150       -0.86120       -0.57150
H          0.79990        0.93010       -0.63950
H          0.60440        0.10070        0.95360
H          2.73250       -1.11590        0.61340
H          2.84850        0.38320       -1.82470
H          2.86120        1.27460        1.79370
H          5.12090        0.87090       -0.42460
H          5.17500        1.96960        1.16620
