15
1791	1
C          0.39430        1.32230       -0.25820
C         -1.05260        1.06240        0.17150
C         -1.40390       -0.39530        0.02990
C         -0.45620       -1.33810       -0.10530
C          1.01970       -1.00360       -0.04730
N          1.27310        0.37200        0.41670
H          0.67420        2.36700       -0.00250
H          0.49310        1.19830       -1.36150
H         -1.70790        1.67670       -0.48210
H         -1.22670        1.35800        1.22810
H         -2.44920       -0.68840        0.04090
H         -0.75300       -2.37240       -0.24960
H          1.46960       -1.18070       -1.04890
H          1.50410       -1.69080        0.67800
H          2.27220        0.61250        0.21800
