16
1775	1
C          0.73250        1.27420       -0.23310
C         -0.71690        1.23610        0.25260
C         -1.36930       -0.06660       -0.23250
O         -0.66970       -1.19570        0.26550
C          0.65210       -1.21750       -0.24880
C          1.44530        0.00510        0.23520
H          1.25010        2.17780        0.15430
H          0.74560        1.31300       -1.34520
H         -1.27370        2.11700       -0.13230
H         -0.73830        1.26090        1.36450
H         -1.43060       -0.09910       -1.34440
H         -2.41210       -0.10280        0.14690
H          0.64200       -1.27910       -1.36110
H          1.15780       -2.13530        0.11820
H          2.48230       -0.02150       -0.16260
H          1.49100       -0.00840        1.34650
