17
1741	1
C          0.99060       -0.15440        0.01290
C          2.49110        0.05460       -0.20260
C          2.78030        0.06680       -1.71780
N          2.88210        1.27890        0.55330
C          4.33860        1.25100        0.84670
C          3.81470        2.27090       -0.04670
H          0.65140       -1.09380       -0.47450
H          0.41530        0.69810       -0.40840
H          0.77020       -0.22990        1.09940
H          2.99310       -0.83800        0.23770
H          2.26950        0.92140       -2.21140
H          2.41310       -0.87400       -2.18110
H          3.87160        0.10880       -1.91560
H          4.90890        0.43960        0.34160
H          4.52430        1.57280        1.89250
H          3.96320        2.16750       -1.13480
H          3.63290        3.26420        0.41380
