17
1774	1
C          0.72630        1.26260       -0.24000
C         -0.72380        1.24490        0.25250
C         -1.41900       -0.03260       -0.23520
N         -0.69930       -1.21990        0.25010
C          0.68380       -1.24320       -0.24970
C          1.44480       -0.00320        0.23680
H          1.24860        2.16520        0.14310
H          0.73840        1.29790       -1.35210
H         -1.26330        2.14050       -0.12350
H         -0.73820        1.26660        1.36460
H         -1.46650       -0.04050       -1.34800
H         -2.46000       -0.04870        0.15300
H         -1.19330       -2.07470       -0.09730
H          0.68900       -1.28170       -1.36290
H          1.19680       -2.15380        0.12760
H          2.48580       -0.01760       -0.15110
H          1.48320       -0.01140        1.34840
