11
1757	2
N          2.31710       -1.40150        0.57580
C          2.45580       -0.14170        0.10260
O          2.03110        0.80280        0.75080
C          3.14160        0.10630       -1.20870
C          2.58160       -0.56700       -2.41120
O          2.23830        0.75100       -2.07720
H          1.84980       -1.57090        1.47890
H          2.67820       -2.20460        0.04030
H          4.09340        0.67610       -1.24360
H          1.69160       -1.21940       -2.28600
H          3.20940       -0.56340       -3.32600
