10
1740	1
F          3.41910        0.17900        0.87640
C          2.32960        0.12320        0.02790
F          1.35120        0.98400        0.49770
C          2.78030        0.47620       -1.39100
C          1.81430        1.17020       -2.27480
O          2.85670        1.85730       -1.60230
H          1.92900       -0.91160        0.03010
H          3.61070       -0.07040       -1.88510
H          0.85240        1.54510       -1.86740
H          2.03840        1.20800       -3.36100
