14
1776	1
C          0.69600        1.23840       -0.24630
C         -0.74960        1.17940        0.23770
O         -1.36780        0.00200       -0.24100
C         -0.66110       -1.12770        0.24530
O          0.66410       -1.16720       -0.25880
C          1.37770       -0.04450        0.21920
H          1.21620        2.13650        0.15010
H          0.70620        1.27310       -1.35780
H         -1.29780        2.06220       -0.15320
H         -0.80680        1.22450        1.34980
H         -1.18610       -2.03450       -0.11870
H         -0.69090       -1.19620        1.35840
H          2.41120       -0.07180       -0.18560
H          1.46000       -0.07970        1.33000
