11
1735	1
F          2.68830        1.31320       -0.01870
C          2.29200       -0.00590       -0.13500
F          2.93630       -0.57930       -1.21980
C          2.57250       -0.73890        1.18840
C          2.91510       -2.15640        1.13310
N          3.97190       -1.14450        1.39810
H          1.19920       -0.03250       -0.32660
H          2.11390       -0.37670        2.13250
H          3.12780       -2.66080        0.16410
H          2.76280       -2.74400        2.06230
H          4.52740       -1.01360        0.52140
