12
1780	1
C          0.66740        1.14230       -0.23830
O         -0.66020        1.16220        0.23710
C         -1.31210        0.00030       -0.22560
O         -0.66100       -1.16260        0.23580
C          0.66660       -1.14310       -0.23960
O          1.35270       -0.00090        0.22280
H          1.18570        2.03420        0.16980
H          0.71650        1.24070       -1.34860
H         -1.43250        0.00100       -1.33480
H         -2.33970        0.00040        0.19240
H          0.71560       -1.24030       -1.35000
H          1.18430       -2.03580        0.16740
