14
1770	1
C         -1.24960        0.18620       -0.34480
C         -0.41260       -0.48500        0.76120
C         -0.40290        0.88270        1.47090
C         -0.35390        1.38720        0.01570
C          0.96270        0.82930       -0.38430
C          0.92340       -0.42660        0.11580
H         -2.31260        0.34130       -0.03900
H         -1.19520       -0.22770       -1.37990
H         -0.69570       -1.43640        1.25810
H          0.45020        1.12570        2.14840
H         -1.37670        1.11110        1.96790
H         -0.57440        2.43330       -0.28280
H          1.76890        1.29190       -0.93770
H          1.69120       -1.18550        0.04880
