11
1759	1
F          1.95130       -0.84640       -1.11010
C          2.17930        0.05040       -0.11430
C          1.53290       -0.07350        1.04760
C          3.16500        1.16000       -0.33040
C          2.74630        2.06790       -1.43280
O          2.66410        2.44390       -0.07580
H          0.82560       -0.88360        1.19310
H          1.70550        0.62940        1.85720
H          4.26520        1.01310       -0.32340
H          1.70070        2.05420       -1.80870
H          3.50420        2.73630       -1.89190
