15
1778	1
C          0.71260        1.20050       -0.24670
C         -0.73880        1.15720        0.24820
O         -1.39480        0.00040       -0.23920
C         -0.73960       -1.15700        0.24790
C          0.71180       -1.20110       -0.24670
N          1.41830       -0.00050        0.21160
H          1.21690        2.10630        0.15270
H          0.72560        1.25120       -1.35910
H         -1.27190        2.05540       -0.12820
H         -0.78240        1.19310        1.36070
H         -1.27330       -2.05470       -0.12890
H         -0.78350       -1.19330        1.36040
H          0.72470       -1.25160       -1.35910
H          1.21560       -2.10750        0.15230
H          2.38740       -0.00130       -0.18370
