10
1758	1
O          2.63610       -1.27130       -0.51280
C          2.25950       -0.09690        0.03520
O          1.12360        0.04500        0.46230
C          3.24100        1.02800        0.13410
C          3.87070        1.48830       -1.13130
O          2.74500        2.12860       -0.59220
H          2.01750       -2.01230       -0.58190
H          3.56620        1.40610        1.12570
H          3.58530        0.98270       -2.07820
H          4.75220        2.15590       -1.03970
