14
1834	1
C          0.95060       -1.04790        0.03990
C         -0.44780       -1.40560       -0.27850
C         -1.30560       -0.36660       -0.05790
C         -0.62260        0.86620        0.42340
C          0.44890        1.41350       -0.50700
C          0.83900        0.39730        0.55810
H          1.61310       -1.12240       -0.84850
H          1.31890       -1.71220        0.84930
H         -0.76350       -2.37500       -0.64070
H         -2.37130       -0.43360       -0.23040
H         -0.86540        1.26230        1.43160
H          0.54320        2.49430       -0.26960
H          0.27690        1.06740       -1.55030
H          1.70100        0.88650        1.05900
