12
1807	2
C          1.41420       -0.20830        0.12070
C          0.41480       -1.33780        0.02950
C         -0.89630       -1.09470       -0.05000
N         -1.37180        0.23910       -0.04990
C         -0.46210        1.32480        0.03430
N          0.80930        1.11660        0.11210
H          2.11250       -0.28480       -0.73860
H          1.99560       -0.32650        1.05870
H          0.77130       -2.36330        0.02890
H         -1.59890       -1.91990       -0.11480
H         -2.38370        0.42220       -0.11140
H         -0.83830        2.34230        0.03350
