20
32	1
C          1.50390        0.05120       -1.30900
O          2.84760        0.21190       -1.70190
C          3.68030       -0.55520       -0.85580
C          5.16040       -0.40820       -1.28780
C          5.60360        1.06380       -1.18410
C          6.04910       -1.26140       -0.36410
N          5.33810       -0.86820       -2.67140
H          0.86640        0.64000       -2.00000
H          1.33270        0.45030       -0.28500
H          1.17900       -1.00950       -1.39470
H          3.40460       -1.63370       -0.91870
H          3.58280       -0.20870        0.19980
H          5.49700        1.43460       -0.14150
H          4.99120        1.71010       -1.84870
H          6.66740        1.17030       -1.48820
H          5.95250       -0.93110        0.69300
H          7.11590       -1.17500       -0.66370
H          5.75960       -2.33280       -0.42290
H          4.76590       -0.29010       -3.32920
H          5.03220       -1.86460       -2.76500
