19
71	1
C          0.93610       -1.77010        0.97160
C          2.42200       -1.80920        1.17560
C          3.24130       -0.97060        0.51470
C          4.75420       -0.96660        0.68610
C          5.42620       -1.20820       -0.67930
C          5.17850        0.40750        1.21940
O          5.18330       -1.93900        1.61270
H          0.59210       -2.75870        0.60300
H          0.63390       -0.99330        0.23680
H          0.44010       -1.55290        1.94030
H          2.81710       -2.53580        1.87720
H          2.81140       -0.25040       -0.17760
H          5.12980       -0.42410       -1.40960
H          5.12780       -2.19640       -1.09080
H          6.53230       -1.19320       -0.57400
H          4.87660        1.21690        0.51930
H          6.28130        0.44850        1.35100
H          4.70400        0.59960        2.20600
H          5.05960       -2.83580        1.20330
