14
1846	1
C          0.01410        0.86110       -0.00920
C         -0.67090       -0.48680       -0.00780
C          0.85170       -0.41240       -0.10590
C          1.40450       -1.07360        1.16150
C          2.84000       -0.79240        1.40680
O          1.81390       -0.16360        2.14580
H          0.27270        1.35450        0.95060
H          0.19740        1.38490       -0.97150
H         -1.27870       -0.48230       -0.93780
H         -1.18880       -0.51450        0.97600
H          1.05980       -0.92000       -1.07190
H          1.02680       -2.03730        1.56490
H          3.35250        0.00590        0.82900
H          3.39290       -1.44500        2.11380
