19
55	2
C          1.03780        0.18280        0.15130
C          2.57930        0.14590        0.17470
C          3.10410        1.57280        0.42970
C          3.03410       -0.79360        1.30920
N          3.06930       -0.34640       -1.11060
C          4.46070       -0.49120       -1.38960
N          4.85630       -0.92720       -2.53110
H          0.63530        0.55430        1.11870
H          0.62660       -0.83370       -0.03080
H          0.67660        0.85370       -0.65800
H          2.71560        1.96670        1.39370
H          2.77940        2.25500       -0.38530
H          4.21280        1.59250        0.47800
H          2.64430       -0.44200        2.28900
H          4.14100       -0.83450        1.38010
H          2.65860       -1.82420        1.13090
H          2.39140       -0.60000       -1.84690
H          5.20150       -0.23470       -0.64040
H          4.18360       -1.18160       -3.26910
