17
44	1
C          0.92580        0.04490        0.10640
C          2.46550        0.05310        0.17530
C          2.92740        0.94460        1.34810
O          2.93460       -1.26280        0.35730
C          3.01880        0.59360       -1.16520
C          4.52180        0.58840       -1.21220
O          5.13740        1.62910       -1.37960
H          0.49430       -0.34810        1.05200
H          0.57880       -0.60280       -0.72730
H          0.53300        1.07190       -0.05590
H          2.51720        0.56630        2.30900
H          2.57800        1.99010        1.20660
H          4.03480        0.94900        1.43030
H          2.56790       -1.60560        1.21450
H          2.64430        1.62830       -1.33400
H          2.65470       -0.04360       -2.00020
H          5.06530       -0.34410       -1.10030
