22
5	1
C          1.42670       -0.26330       -2.09540
C          2.89040        0.11300       -2.31170
C          3.50300        0.69810       -1.02530
C          5.00380        1.11030       -1.12630
C          5.44460        1.67970        0.23590
C          5.89930       -0.10160       -1.45490
N          5.20310        2.14880       -2.14610
H          1.00730       -0.68440       -3.03350
H          0.83400        0.63220       -1.81140
H          1.33920       -1.02780       -1.29400
H          2.93870        0.85610       -3.13460
H          3.43460       -0.80360       -2.61820
H          3.39620       -0.05710       -0.21460
H          2.90680        1.59230       -0.73570
H          5.32880        0.91930        1.03850
H          4.83400        2.56810        0.50600
H          6.51050        1.99300        0.20110
H          5.77670       -0.89860       -0.69010
H          6.96770        0.20320       -1.47790
H          5.65940       -0.52640       -2.45070
H          4.57720        2.96740       -1.96340
H          5.00710        1.78280       -3.10520
