13
1839	1
C          0.96690       -0.97010        0.00260
C         -0.43710       -1.38720        0.20430
C         -1.29610       -0.33770        0.06120
C         -0.58760        0.93710       -0.24370
N          0.36690        1.37140        0.79270
C          0.83430        0.53090       -0.33750
H          1.38550       -1.52230       -0.86450
H          1.59230       -1.13930        0.90460
H         -0.75270       -2.39540        0.43800
H         -2.36800       -0.42430        0.17700
H         -0.80950        1.59060       -1.11270
H          0.24630        0.80080        1.66260
H          1.67490        1.10210       -0.78360
