22
37	1
C          1.50700        0.26670       -0.05850
C          3.03160        0.22720       -0.07990
N          3.50760       -1.08690        0.38390
C          4.97950       -1.27020        0.45590
C          5.63020       -1.17630       -0.94240
C          5.63210       -0.23970        1.40350
C          5.24770       -2.67690        1.02720
H          1.15310        1.26340       -0.39760
H          1.13450        0.08520        0.97220
H          1.09110       -0.50770       -0.73760
H          3.38770        1.03370        0.59200
H          3.36760        0.42840       -1.11800
H          3.10230       -1.82520       -0.24010
H          5.51040       -0.16480       -1.38090
H          5.17770       -1.91860       -1.63410
H          6.72100       -1.37910       -0.87870
H          5.53550        0.79520        1.01730
H          6.72050       -0.44140        1.50690
H          5.16880       -0.29120        2.41190
H          4.80670       -3.45830        0.37140
H          4.79540       -2.77780        2.03740
H          6.33920       -2.87190        1.11090
