20
27	1
C          0.90450        1.85310        0.08960
N          2.35530        2.04560        0.07450
C          3.02020        0.92810       -0.61130
C          4.54590        1.16400       -0.77840
C          5.27220        1.26950        0.58050
C          5.14140       -0.02460       -1.55130
O          4.77520        2.32590       -1.54000
H          0.42540        2.70540        0.61620
H          0.63580        0.91350        0.62110
H          0.50580        1.82290       -0.94720
H          2.67470        2.08360        1.06930
H          2.57900        0.81300       -1.62760
H          2.84420       -0.01760       -0.04890
H          5.10920        0.35080        1.18420
H          4.91910        2.14360        1.16460
H          6.36450        1.40020        0.42300
H          4.99000       -0.97530       -0.99450
H          6.23190        0.12090       -1.70980
H          4.66100       -0.12060       -2.54890
H          4.47640        3.10920       -1.00840
