18
41	1
C          0.89590       -0.13870       -0.12570
C          2.42350        0.03250       -0.01050
C          2.81020        1.38240       -0.64190
C          2.80050        0.03980        1.48210
C          3.10220       -1.14720       -0.75340
C          4.54550       -1.11310       -0.72260
N          5.69590       -1.08590       -0.69800
H          0.36530        0.67310        0.38480
H          0.56850       -1.08330        0.32310
H          0.57530       -0.13760       -1.17360
H          2.27080        2.20880       -0.16500
H          2.56920        1.40150       -1.71060
H          3.88060        1.58860       -0.53520
H          2.26010        0.82670        2.02070
H          3.87050        0.22120        1.62970
H          2.55330       -0.91670        1.95610
H          2.76760       -1.15710       -1.79880
H          2.75850       -2.09450       -0.31820
