13
1848	1
C         -0.25500        0.77910        0.16140
N         -0.32690       -0.64670       -0.22440
C          0.97000       -0.01160        0.05870
C          1.53660       -0.52810        1.37740
C          2.76960       -1.34460        1.27860
O          2.80170        0.02340        1.62460
H         -0.72660        0.89740        1.16010
H         -0.54090        1.42180       -0.70050
H         -0.43670       -0.69640       -1.26460
H          1.59780        0.06190       -0.85850
H          0.93860       -0.58520        2.31230
H          3.26680       -1.46000        0.29230
H          3.07340       -1.93140        2.17000
