18
34	1
C          1.28060       -0.30800       -0.26090
O          2.68180       -0.19120       -0.16800
C          3.00660        0.93370        0.62380
C          4.53560        1.08190        0.73900
C          5.15280       -0.14940        1.41760
C          5.16780        1.29710       -0.64360
F          4.80790        2.19300        1.52070
H          1.04560       -1.19480       -0.88450
H          0.83330        0.57500       -0.76920
H          0.82130       -0.48140        0.73760
H          2.59230        0.82090        1.65260
H          2.60320        1.86570        0.16380
H          4.96830       -1.06810        0.82030
H          4.71670       -0.28930        2.42980
H          6.25020       -0.01640        1.52920
H          4.98380        0.42430       -1.30620
H          6.26530        1.43970       -0.54580
H          4.74270        2.20430       -1.12360
