10
157	1
C          1.01950        0.08230        0.06820
C          2.51990        0.08630        0.05100
O          3.13400        0.30990        1.08320
C          3.28050       -0.18050       -1.21790
F          2.41860       -0.41110       -2.27600
F          4.07340        0.91190       -1.51700
F          4.08520       -1.29160       -1.04640
H          0.63780        0.29810        1.08910
H          0.64420       -0.91320       -0.24870
H          0.63520        0.85810       -0.62660
