19
128	1
C          2.84470       -1.50080        0.39730
C          2.53220       -0.04820        0.14980
O          1.70010        0.49810        0.86110
C          3.23060        0.74240       -0.96240
C          2.93690        0.09550       -2.33020
C          2.72400        2.20290       -0.99320
C          4.75240        0.75930       -0.71840
H          2.23650       -1.88940        1.24190
H          3.91420       -1.62880        0.65970
H          2.60930       -2.10730       -0.50030
H          1.84240        0.07140       -2.52290
H          3.32570       -0.94330       -2.37740
H          3.42250        0.67080       -3.14820
H          1.62870        2.23570       -1.18120
H          3.22860        2.77940       -1.79880
H          2.92970        2.71120       -0.02610
H          5.17530       -0.26700       -0.73540
H          4.98410        1.21980        0.26640
H          5.26950        1.34620       -1.50830
