11
120	1
C          0.94720        0.00080        0.08550
C          2.47500       -0.02550        0.10570
F          2.95190        0.91430       -0.79190
F          2.91860        0.30400        1.37500
C          3.01400       -1.40540       -0.27890
F          4.39700       -1.38600       -0.26850
F          2.57280       -2.36400        0.61670
H          0.58630        1.01410        0.36150
H          0.53400       -0.73020        0.81270
H          0.56970       -0.24540       -0.93000
H          2.67060       -1.67850       -1.29960
