21
178	1
C          3.26320        0.39600        1.77650
C          3.51420       -0.46900        0.54240
C          2.40670       -0.25700       -0.49390
O          4.76720       -0.10370       -0.01220
C          5.43840       -1.21110       -0.59040
C          6.22620       -0.71740       -1.80280
C          6.38050       -1.84180        0.43920
H          2.28790        0.13520        2.24060
H          3.25690        1.47300        1.50270
H          4.06630        0.22400        2.52450
H          3.49360       -1.52870        0.89290
H          2.38530        0.80270       -0.82730
H          1.41820       -0.52000       -0.06050
H          2.58180       -0.90290       -1.37940
H          4.73310       -1.98860       -0.97030
H          6.96370        0.05640       -1.49940
H          5.53060       -0.27350       -2.54650
H          6.76500       -1.56130       -2.28460
H          7.11650       -1.09250        0.80150
H          6.92710       -2.69720       -0.01210
H          5.80160       -2.21790        1.30840
