20
103	1
C          2.88200       -1.35440        0.11890
C          2.44520        0.12090        0.03470
O          1.04000        0.20680       -0.00230
C          3.04280        1.05780        1.14400
C          2.57420        2.50470        0.88760
C          2.59100        0.64520        2.56200
N          4.51170        1.04610        1.09800
H          2.43700       -1.91860       -0.72810
H          2.53730       -1.82550        1.06210
H          3.98350       -1.45420        0.04200
H          2.81350        0.48790       -0.94890
H          0.67590       -0.31390        0.75970
H          1.46720        2.58390        0.94320
H          2.89960        2.84860       -0.11790
H          3.00870        3.19420        1.64350
H          1.48650        0.68600        2.66480
H          3.02710        1.33300        3.31830
H          2.93370       -0.38020        2.81050
H          4.85270        1.28570        0.13810
H          4.89620        0.11340        1.37070
