20
107	1
C          2.92030       -1.38560        0.51210
C          2.45170       -0.03600       -0.06210
N          0.98610        0.01430       -0.10930
C          3.04750        1.20060        0.69540
C          2.60180        2.50940        0.00730
C          2.60630        1.25800        2.17210
O          4.45480        1.13120        0.68020
H          2.52790       -2.21630       -0.11220
H          2.55290       -1.53660        1.54760
H          4.02880       -1.44750        0.50720
H          2.82460        0.01180       -1.11040
H          0.58110       -0.16180        0.83790
H          0.63320       -0.73410       -0.74950
H          1.49660        2.61970        0.03630
H          2.92620        2.52270       -1.05510
H          3.05310        3.38830        0.51590
H          1.50470        1.34940        2.26800
H          3.06180        2.14070        2.67080
H          2.94400        0.36030        2.72850
H          4.75590        1.14320       -0.26640
