13
151	1
C          3.12300       -0.86080        1.10370
C          2.41020       -0.31350       -0.09800
O          1.19120       -0.22400       -0.08460
C          3.17840        0.13330       -1.31830
C          2.76530       -0.67860       -2.54390
F          2.91960        1.47290       -1.54920
F          4.54040       -0.02490       -1.11920
H          2.39800       -1.13380        1.90010
H          3.82110       -0.09670        1.50520
H          3.69540       -1.76780        0.81760
H          1.68140       -0.54960       -2.75130
H          2.97740       -1.75700       -2.38020
H          3.33690       -0.33480       -3.43190
