21
184	1
C          1.15600        0.47120       -0.03560
C          2.67240        0.33640       -0.22320
C          3.30690        1.72970       -0.35060
C          3.28000       -0.45580        0.95610
C          4.77120       -0.69460        0.81040
C          5.29080       -1.49220       -0.35950
C          5.62530       -0.21150        1.72770
H          0.70860        1.01240       -0.89660
H          0.92170        1.02860        0.89700
H          0.68550       -0.53370        0.02130
H          2.84380       -0.22080       -1.16930
H          3.14430        2.32090        0.57620
H          2.85910        2.27730       -1.20720
H          4.39860        1.64820       -0.53500
H          2.78460       -1.44840        1.02640
H          3.06170        0.09280        1.90000
H          4.83540       -2.50430       -0.34730
H          6.39560       -1.60750       -0.32780
H          5.03200       -0.98890       -1.31300
H          5.26570        0.35980        2.57810
H          6.69410       -0.38050        1.63820
