19
171	1
C          1.18610        0.12310       -0.56260
C          2.70490        0.23830       -0.39110
O          3.05370        1.57120       -0.11430
C          3.21350       -0.72420        0.70810
C          4.74570       -0.75450        0.91010
C          5.51300       -1.25610       -0.32500
O          5.23000        0.48990        1.35420
H          0.84600        0.80150       -1.37360
H          0.66350        0.40050        0.37780
H          0.90690       -0.91730       -0.83440
H          3.16100       -0.04580       -1.36220
H          2.64000        1.81700        0.75460
H          2.88450       -1.75610        0.45360
H          2.73810       -0.45140        1.67610
H          4.94950       -1.48960        1.71910
H          5.39210       -0.56680       -1.18590
H          5.15100       -2.26470       -0.61720
H          6.59570       -1.32590       -0.08770
H          5.39770        1.06440        0.56290
