17
116	1
C          1.07470        0.01530       -0.16020
C          2.60510        0.05150       -0.02150
C          3.08840        1.50690       -0.14360
C          3.04350       -0.61660        1.30990
C          4.56470       -0.69780        1.46570
F          2.52130        0.08120        2.38720
F          2.55190       -1.91160        1.34750
H          0.76630        0.45570       -1.13250
H          0.58910        0.58880        0.65850
H          0.70400       -1.03120       -0.13160
H          3.03430       -0.52960       -0.86790
H          2.68550        2.12760        0.68510
H          2.74850        1.94090       -1.10830
H          4.19500        1.56670       -0.13630
H          5.02380        0.30970        1.51860
H          5.00970       -1.26190        0.61860
H          4.81240       -1.22660        2.41040
