21
102	1
C          2.80630       -0.04740        1.42340
C          2.34600       -0.03050       -0.04790
N          0.87970       -0.05680       -0.10680
C          2.93050        1.15920       -0.89710
C          2.44340        1.03390       -2.35600
C          2.49510        2.54140       -0.36030
N          4.39940        1.10810       -0.91400
H          2.39030       -0.94120        1.93510
H          2.45210        0.85130        1.96830
H          3.90970       -0.11310        1.50180
H          2.71520       -0.97480       -0.50860
H          0.47470        0.75170        0.41660
H          0.52770       -0.93300        0.34330
H          1.33710        1.11080       -2.42030
H          2.75320        0.05890       -2.78970
H          2.88150        1.84150       -2.98190
H          1.39220        2.65940       -0.37940
H          2.92920        3.34960       -0.98770
H          2.85280        2.70180        0.67720
H          4.73350        0.17210       -1.24190
H          4.80340        1.30300        0.02970
