18
144	1
C          2.68210       -0.43260       -1.31330
C          2.25740       -0.05330        0.08850
C          1.18080       -0.66760        0.62310
C          3.08070        0.99920        0.85150
C          3.06080        2.34130        0.10220
C          2.61290        1.24440        2.29900
F          4.39080        0.55310        0.91320
H          2.03350       -1.22080       -1.75250
H          3.72240       -0.81900       -1.29470
H          2.63210        0.44520       -1.98780
H          0.62980       -1.41080        0.05460
H          0.82280       -0.45200        1.62130
H          2.02150        2.72680        0.02080
H          3.48840        2.24160       -0.91600
H          3.67760        3.09320        0.63990
H          1.57470        1.64060        2.32240
H          3.27510        1.98510        2.79690
H          2.66470        0.30330        2.88730
