19
90	1
C          1.02980       -0.04130        0.05890
C          2.49210       -0.04130        0.05890
C          3.69770       -0.04130        0.05890
C          5.17210       -0.04130        0.05890
C          5.67410       -1.46950        0.32700
C          5.67410        0.44060       -1.31210
C          5.67410        0.90500        1.16160
H          0.66060        0.79760       -0.56610
H          0.66060        0.08050        1.09790
H          0.66050       -1.00200       -0.35510
H          5.31090       -2.16770       -0.45860
H          5.31090       -1.83520        1.31240
H          6.78520       -1.49880        0.33250
H          5.31090       -0.23000       -2.12140
H          6.78520        0.45040       -1.34020
H          5.31090        1.47000       -1.52390
H          5.31090        0.57370        2.15910
H          5.31090        1.94120        0.98560
H          6.78520        0.92440        1.18420
