16
183	1
C          1.07110       -0.11640       -0.19400
N          2.51270        0.08030        0.03570
C          2.81860        1.52100       -0.00200
C          2.89850       -0.55460        1.31790
C          4.41570       -0.61270        1.54030
F          4.95030        0.64550        1.74380
F          4.67850       -1.37310        2.66500
H          0.77610        0.30160       -1.18080
H          0.46600        0.37300        0.60200
H          0.82640       -1.20020       -0.21950
H          2.40760        1.98290       -0.92610
H          3.91150        1.68720       -0.05700
H          2.39480        2.04900        0.88090
H          2.55530       -1.61390        1.30280
H          2.40670       -0.05170        2.18130
H          4.90830       -1.09210        0.66800
