13
94	1
C          0.99190       -0.01950        0.09810
C          2.45470       -0.03270        0.09350
C          3.66050       -0.04380        0.08970
C          5.12740       -0.05800        0.08480
C          5.67390        1.28810        0.54760
F          5.57290       -1.05480        0.93340
F          5.57290       -0.32240       -1.19730
H          0.63070        1.01420       -0.08000
H          0.62180       -0.37630        1.08120
H          0.61350       -0.68660       -0.70360
H          5.33170        1.51110        1.58130
H          5.33170        2.09950       -0.13050
H          6.78420        1.26440        0.53940
