17
219	1
C          0.81120        0.64360        0.17000
C          2.28530        0.23910        0.19330
C          2.82930        0.35270        1.62560
O          2.39010       -1.06240       -0.27310
C          3.53750       -1.73860       -0.57440
N          3.45620       -3.11940       -0.87360
N          4.68630       -1.15430       -0.61380
H          0.69190        1.69200        0.51820
H          0.21140       -0.02530        0.82420
H          0.41760        0.57230       -0.86640
H          2.83030        0.93320       -0.48350
H          2.26850       -0.32350        2.30600
H          2.72610        1.39640        1.99170
H          3.90220        0.08000        1.67490
H          2.54510       -3.59940       -0.85410
H          4.30450       -3.65380       -1.11210
H          4.81230       -0.15150       -0.42480
