15
257	2
C          4.80130       -1.55050        0.13160
C          3.61780       -0.61790        0.19660
N          2.43740       -1.13340        0.23750
N          3.72150        0.81880        0.21570
C          4.88000        1.67990        0.18120
N          4.67360        3.08340        0.21220
N          6.09350        1.25110        0.12390
H          4.48260       -2.61460        0.12730
H          5.44010       -1.41910        1.02950
H          5.36310       -1.38850       -0.81160
H          2.28110       -2.15230        0.22730
H          2.81790        1.31480        0.26160
H          3.72080        3.47230        0.25810
H          5.47660        3.72920        0.18910
H          6.39030        0.27940        0.09610
