12
283	1
C          0.91810        0.10700       -0.01360
C          2.41060        0.07610        0.14180
F          2.98300       -1.02900        0.69170
C          3.16960        1.11430       -0.25190
C          4.66560        1.11530       -0.11050
F          5.23910        1.26000       -1.35950
F          5.04500        2.17800        0.68730
H          0.60020       -0.73830       -0.65850
H          0.56320        1.05480       -0.47240
H          0.44440       -0.00150        0.98410
H          2.69980        1.99100       -0.68960
H          5.04760        0.17820        0.34600
