16
193	1
C          0.92990        0.04560        0.08830
C          2.46720        0.07650        0.17590
N          2.88130        0.88750        1.32320
C          3.07490       -1.33760        0.31320
C          2.89790       -2.23510       -0.88760
O          3.39320       -3.48990       -0.84750
O          2.33790       -1.83660       -1.89850
H          0.53640        1.08000       -0.00490
H          0.49830       -0.41610        1.00210
H          0.57850       -0.52590       -0.79300
H          2.87640        0.55030       -0.74400
H          2.48210        0.49600        2.20790
H          2.53510        1.86780        1.20620
H          2.63750       -1.83630        1.20540
H          4.16970       -1.23600        0.47660
H          3.30560       -4.08740       -1.60380
