13
247	2
N          2.42300       -1.35240       -0.80110
C          2.41860       -0.08510       -0.32390
O          1.75570        0.77150       -0.88990
C          3.20650        0.27900        0.90800
C          4.68630        0.07560        0.69280
F          5.16210       -1.16600        0.40900
C          5.54710        1.09510        0.78490
H          1.87660       -1.59370       -1.64130
H          2.95990       -2.09270       -0.32760
H          2.86870       -0.34900        1.75920
H          2.99830        1.34120        1.16820
H          5.20480        2.09980        1.01340
H          6.60770        0.92530        0.63000
