14
239	2
C          3.47500       -1.26800       -1.32910
C          3.23740        0.11610       -0.79620
O          2.72080        0.95500       -1.51910
C          3.58700        0.47780        0.62660
C          5.06590        0.36100        0.90580
N          5.78530        1.44910        1.26960
O          5.61770       -0.72580        0.82080
H          3.12020       -1.34710       -2.37910
H          2.92090       -2.00500       -0.71120
H          4.55550       -1.51340       -1.31440
H          3.02860       -0.18380        1.32250
H          3.25640        1.52230        0.81830
H          5.33850        2.37370        1.35410
H          6.79350        1.36380        1.46670
