13
243	1
N          2.95430       -0.44710        1.61030
C          2.68760       -0.43150        0.21470
N          1.84190       -1.25720       -0.29200
C          3.38370        0.56570       -0.67760
C          4.88150        0.40110       -0.69840
O          5.62570        1.24110       -1.44800
O          5.42730       -0.48350       -0.05340
H          2.48050       -1.12220        2.22810
H          3.62130        0.22290        2.01970
H          1.34810       -1.94510        0.29560
H          3.13740        1.58850       -0.32190
H          3.01400        0.46070       -1.72100
H          6.58940        1.15960       -1.48400
