17
196	1
C          3.25380       -1.62090        0.05950
C          2.78700       -0.15730        0.13110
O          3.00390        0.40180        1.40430
C          3.38080        0.73490       -0.98260
C          4.88060        0.93910       -0.96410
C          5.51580        1.79470       -2.01730
O          5.58200        0.42320       -0.10770
H          2.73390       -2.21590        0.84010
H          4.34610       -1.71520        0.22310
H          3.00510       -2.05160       -0.93370
H          1.68680       -0.17970       -0.02900
H          3.92080        0.16900        1.70060
H          2.90190        1.73530       -0.91040
H          3.10410        0.29550       -1.96560
H          5.31040        1.36590       -3.02040
H          6.61570        1.84930       -1.87050
H          5.09750        2.82170       -1.96650
