18
271	1
C          0.65840       -0.16580       -0.03700
C          2.18110       -0.00700       -0.00680
C          2.86290       -1.37810       -0.00450
C          2.62830        0.77350       -1.22940
C          3.27970        1.95790       -1.23680
C          3.69160        2.73980       -0.01540
F          3.59400        2.49690       -2.44480
H          0.31430       -0.74160        0.84880
H          0.33340       -0.69940       -0.95650
H          0.17200        0.83300       -0.01240
H          2.43880        0.48700        0.94450
H          2.60710       -1.94990       -0.92300
H          2.54090       -1.96610        0.88160
H          3.96600       -1.25350        0.04350
H          2.39910        0.33060       -2.19580
H          3.43160        2.29300        0.95700
H          3.21520        3.74110       -0.05790
H          4.79310        2.87350       -0.03460
