16
198	2
C          0.92030       -0.04780       -0.96090
C          2.24840        0.39440       -0.33540
O          2.41590        1.78030       -0.49470
C          2.33480       -0.02770        1.14710
C          3.67860        0.27720        1.76740
N          4.09870        1.55380        1.93520
O          4.38850       -0.64440        2.14190
H          0.89570        0.23840       -2.03380
H          0.06380        0.43390       -0.44230
H          0.80830       -1.15070       -0.88890
H          3.06390       -0.11770       -0.89180
H          1.67000        2.22970       -0.01680
H          2.16990       -1.12730        1.19650
H          1.53440        0.46330        1.74200
H          3.50820        2.34840        1.65480
H          5.01510        1.74580        2.36640
