14
258	2
C          0.82390        0.28550        0.07630
C          2.32650        0.19060        0.12730
N          3.00070        1.23320        0.45250
N          2.96050       -1.06250       -0.18950
C          4.30180       -1.36760       -0.20400
N          5.28410       -0.47520        0.09780
O          4.63170       -2.50590       -0.50530
H          0.43370        0.57060        1.07590
H          0.36400       -0.68110       -0.21680
H          0.52340        1.05570       -0.66490
H          2.53630        2.12600        0.67740
H          2.32260       -1.83460       -0.43880
H          5.12140        0.49710        0.36170
H          6.26780       -0.78280        0.06370
