18
215	1
C          0.68550        0.56170       -0.61040
C          2.07700        0.42110        0.01080
C          2.84950        1.73800       -0.09630
N          1.94290        0.05460        1.41550
C          2.44580       -1.14360        2.02880
N          2.23510       -1.34020        3.41700
N          3.08130       -2.05060        1.36740
H          0.76770        0.84650       -1.68130
H          0.09320        1.33670       -0.07770
H          0.14560       -0.40690       -0.54580
H          2.62570       -0.32810       -0.58220
H          2.32270        2.54870        0.45170
H          2.95780        2.03670       -1.16100
H          3.86430        1.61480        0.33830
H          1.44120        0.71860        2.02560
H          1.73140       -0.63490        3.97380
H          2.58490       -2.19070        3.88230
H          3.28580       -2.00950        0.36450
