15
237	1
C          2.91990        0.52430       -1.75910
C          2.68040        0.41300       -0.28200
O          2.01110        1.26080        0.28890
C          3.24530       -0.74300        0.49870
C          4.74900       -0.76210        0.44090
C          5.54720        0.38320        0.99110
O          5.32480       -1.72310       -0.04670
H          2.42330        1.42930       -2.16970
H          2.51030       -0.37130       -2.27120
H          4.00860        0.59490       -1.96250
H          2.83390       -1.68670        0.07930
H          2.93390       -0.67450        1.56370
H          5.32160        0.50950        2.07050
H          5.28920        1.31860        0.45250
H          6.63570        0.19490        0.87290
