17
228	2
C          1.07700        0.26690       -0.02850
N          2.50670        0.09480        0.25410
C          2.90410        0.87490        1.43130
N          2.75750       -1.25560        0.50240
C          3.62660       -1.95360       -0.27310
C          4.34590       -1.29200       -1.41430
O          3.82970       -3.13570       -0.04040
H          0.85760        1.33330       -0.25060
H          0.45250       -0.06140        0.83240
H          0.79660       -0.32930       -0.92320
H          2.73730        1.95740        1.24450
H          3.98800        0.72980        1.62830
H          2.32960        0.56710        2.33330
H          2.27920       -1.73410        1.28430
H          3.60880       -0.89940       -2.14550
H          5.01060       -2.01570       -1.93260
H          4.96480       -0.45390       -1.03060
