21
270	1
C          2.12530       -0.23720        1.53720
C          2.78000       -0.27610        0.15350
C          1.80500       -0.83840       -0.88480
C          3.18400        1.13130       -0.24920
C          4.44190        1.56770       -0.52370
C          5.68340        0.70420       -0.47330
C          4.64510        3.01180       -0.90910
H          1.81530       -1.25890        1.84480
H          1.22900        0.42050        1.53400
H          2.84820        0.14730        2.28840
H          3.62740       -0.97720        0.21540
H          0.89860       -0.19970       -0.96490
H          1.49180       -1.86610       -0.60140
H          2.29700       -0.88720       -1.88000
H          2.37000        1.84950       -0.32000
H          5.53540       -0.34930       -0.19220
H          6.39430        1.13840        0.26040
H          6.16530        0.70790       -1.47340
H          3.69590        3.58910       -0.92700
H          5.09940        3.06480       -1.92070
H          5.32910        3.49660       -0.18140
