13
278	1
C          0.97860       -0.09070       -0.08140
C          2.49740       -0.02020        0.09650
O          3.14870       -0.21050       -1.13380
C          2.90240        1.30660        0.69960
C          3.52680        1.40110        1.88120
F          3.83160        0.29260        2.60740
F          3.86350        2.62420        2.36720
H          0.69550       -1.07250       -0.51680
H          0.62380        0.71590       -0.75840
H          0.47350        0.01890        0.90230
H          2.78970       -0.85960        0.76340
H          2.85450        0.51180       -1.74960
H          2.67720        2.21730        0.15140
