17
232	1
C          4.61960       -2.11240       -0.34860
C          3.70270       -1.08130        0.25880
C          2.83390       -1.43050        1.22130
C          3.76410        0.34720       -0.23370
C          5.12100        0.95090        0.00970
C          5.64600        1.10460        1.40690
O          5.79520        1.32970       -0.93620
H          4.46760       -3.11990        0.09470
H          5.67740       -1.81930       -0.18500
H          4.42830       -2.17900       -1.44000
H          2.78030       -2.45430        1.57890
H          2.16730       -0.69620        1.66310
H          3.00730        0.98430        0.27420
H          3.53380        0.35250       -1.32130
H          4.95670        1.74580        1.99500
H          6.65230        1.57500        1.39830
H          5.72380        0.11040        1.89410
