16
255	2
C          3.60680       -1.50800       -1.12690
C          3.00950       -0.26420       -0.51810
N          1.86230        0.13480       -0.94900
N          3.64140        0.51060        0.51890
C          4.90520        0.32060        1.19410
C          5.31010        1.30770        2.25260
N          5.71940       -0.64740        0.94960
H          2.94430       -1.93880       -1.90750
H          3.72700       -2.29220       -0.35110
H          4.56520       -1.26360       -1.63010
H          1.34770       -0.36590       -1.68870
H          3.10140        1.33390        0.82700
H          4.54660        2.10130        2.39010
H          6.26800        1.79020        1.96510
H          5.44550        0.78110        3.22080
H          5.58780       -1.38920        0.26730
