17
294	1
C          0.93480        0.20600        0.17160
C          2.42220        0.03040       -0.01490
C          2.86650       -0.48340       -1.36520
C          3.25010        0.28630        1.03610
C          4.74660        0.25020        1.07650
N          5.38240        0.04790        2.32760
N          5.47940        0.51120        0.04960
H          0.55530        0.94310       -0.56680
H          0.66760        0.56900        1.18710
H          0.42130       -0.76460        0.00740
H          2.29100       -1.40520       -1.59320
H          3.91680       -0.81050       -1.42240
H          2.64520        0.26920       -2.15050
H          2.78160        0.54120        1.98290
H          4.82450       -0.12160        3.17720
H          6.41050        0.06310        2.39810
H          5.10130        0.77800       -0.86620
