10
303	2
N          0.96190       -0.18490       -0.22820
C          2.17420        0.07360        0.31450
O          2.66260        1.18780        0.19450
C          2.89910       -0.99540        1.04930
C          4.10210       -0.81230        1.61410
F          4.74290        0.38520        1.54720
F          4.69810       -1.84270        2.26900
H          0.45220        0.55100       -0.73940
H          0.53340       -1.11790       -0.13760
H          2.43250       -1.97280        1.13350
