13
288	1
C          1.10350        0.11870        0.18940
C          2.59300       -0.11500        0.09810
C          3.11180       -1.24930        0.59570
C          3.51410        0.88030       -0.53130
C          3.12820        2.05120       -1.06580
F          1.82900        2.44640       -1.08230
F          4.06410        2.87220       -1.60980
H          0.57700       -0.72420        0.68690
H          0.67700        0.22650       -0.82970
H          0.90270        1.03620        0.78090
H          2.47780       -1.99820        1.06100
H          4.17920       -1.44350        0.54370
H          4.57500        0.64400       -0.56140
