14
302	2
N          0.87430        0.08810        0.08150
C          2.28040        0.07190       -0.13170
N          2.76610        0.36960       -1.43890
C          3.09270       -0.22600        0.91830
C          4.58520       -0.30200        0.93120
N          5.22280       -0.61640        2.08340
O          5.24600       -0.08800       -0.07080
H          0.23490        0.31020       -0.69500
H          0.47360       -0.12020        1.00820
H          2.09310        0.58660       -2.18790
H          3.75930        0.38200       -1.68640
H          2.60810       -0.43590        1.86840
H          4.69140       -0.80260        2.94670
H          6.25190       -0.67330        2.11070
