16
290	2
C          0.76310       -0.08130       -0.10160
C          2.23890        0.09580        0.16030
N          2.63490        1.27940        0.84640
C          3.09940       -0.87310       -0.26830
C          4.59040       -0.97310       -0.15510
C          5.48210        0.04230        0.49550
O          5.12260       -1.96410       -0.63250
H          0.21740       -0.08930        0.86510
H          0.52560       -1.02410       -0.63940
H          0.39500        0.76740       -0.71520
H          1.91370        1.95740        1.13300
H          3.59960        1.50900        1.07930
H          2.64960       -1.72150       -0.77880
H          5.22950        0.14070        1.57160
H          5.41020        1.01300       -0.03750
H          6.54320       -0.28360        0.43800
