16
287	1
C          0.87520       -0.02830       -0.12840
C          2.33750       -0.10150        0.20580
F          2.72630        0.31100        1.44040
C          3.22800       -0.56350       -0.69780
C          4.70080       -0.67480       -0.46070
C          5.33610       -0.26810        0.84800
C          5.47820       -1.15220       -1.44640
H          0.53330        1.02400       -0.04250
H          0.30480       -0.65290        0.58990
H          0.65730       -0.38660       -1.15740
H          2.85430       -0.87890       -1.66940
H          4.91670       -0.87810        1.67510
H          5.14660        0.80870        1.03930
H          6.43710       -0.41960        0.84420
H          5.04980       -1.45260       -2.39830
H          6.55180       -1.24930       -1.31590
