15
344	1
C          0.92270       -0.19410        0.19010
C          2.41590       -0.01930       -0.11280
C          2.72160        0.02340       -1.61510
C          3.11270        1.15380        0.72290
C          3.78770       -0.04270        1.25140
O          4.65450       -0.19620        2.09670
O          3.18630       -0.96120        0.54140
H          0.35050        0.66650       -0.21620
H          0.75090       -0.25010        1.28640
H          0.54670       -1.13060       -0.27370
H          2.20920        0.89130       -2.08130
H          2.36920       -0.91020       -2.10250
H          3.81480        0.12040       -1.78820
H          2.52410        1.61640        1.54380
H          3.86590        1.77870        0.19730
