17
325	1
C          0.99770        0.07450        0.07170
C          2.52490        0.07260        0.05000
F          2.99790        0.04660       -1.25320
C          3.24170        1.15550        0.86400
C          4.26940        0.09510        1.28850
N          5.44550        0.08480        0.40800
C          3.23900       -0.97980        0.90450
H          0.61780        0.96810       -0.46640
H          0.61690        0.09570        1.11490
H          0.61610       -0.83930       -0.43010
H          2.62460        1.39360        1.76210
H          3.58830        2.07850        0.35220
H          4.59640        0.11990        2.35120
H          5.21000        0.06410       -0.60770
H          6.01610       -0.76410        0.62480
H          2.62190       -1.18210        1.81130
H          3.58310       -1.92260        0.42810
