18
379	1
C          1.15880       -0.60490       -0.18200
C          2.37360        0.17070        0.37200
N          3.34910        0.40140       -0.70260
C          1.90970        1.52780        0.95750
O          1.26400        2.31390       -0.01090
C          3.03760       -0.67120        1.48860
O          4.14900       -0.01120        2.03590
H          0.66280       -0.03470       -0.99610
H          0.41240       -0.79020        0.62040
H          1.47810       -1.58540       -0.59610
H          2.90970        0.92890       -1.49160
H          3.68690       -0.51240       -1.08520
H          2.77140        2.08580        1.39380
H          1.19620        1.35890        1.79290
H          1.95480        2.89420       -0.42480
H          3.34190       -1.67260        1.10390
H          2.31060       -0.86260        2.30760
H          4.91870       -0.19700        1.43670
