9
359	1
F          0.88560        0.20390       -0.22290
C          2.23420       -0.03330       -0.02320
F          2.73430        0.00560        1.26640
C          3.08290       -0.59840       -1.15210
C          3.04000        0.90220       -0.89900
F          2.45720        1.51160       -1.99590
F          4.30220        1.31370       -0.50960
H          2.35150       -1.06410       -1.84640
H          3.84610       -1.22440       -0.64250
