20
313	1
C          0.88440        0.03060        0.27920
C          2.40520        0.03530        0.04320
C          2.70800        0.02350       -1.47020
C          3.16360        1.12470        0.82000
C          4.12940        0.05370        1.34920
N          5.42660        0.06430        0.66620
C          3.17400       -1.03550        0.83430
H          0.42310        0.92910       -0.18320
H          0.64620        0.03810        1.36460
H          0.43050       -0.87870       -0.16890
H          2.25740        0.91930       -1.94810
H          2.26000       -0.88180       -1.93280
H          3.77910        0.02160       -1.72400
H          2.54990        1.46370        1.68540
H          3.59620        1.97310        0.24670
H          4.28180        0.06590        2.45140
H          5.35710        0.06600       -0.36970
H          5.96160       -0.78640        0.95410
H          2.56370       -1.36870        1.70430
H          3.61560       -1.88700        0.27260
