16
309	1
C          0.93820       -0.07120       -0.08030
C          2.42590       -0.17320        0.15440
C          2.86720       -1.20620        1.16670
C          3.25630        0.65040       -0.54220
C          4.74730        0.71650       -0.46520
F          5.47590       -0.08180        0.35300
C          5.40770        1.59400       -1.22820
H          0.42960        0.18680        0.87230
H          0.55220       -1.04770       -0.44100
H          0.67140        0.70220       -0.83220
H          2.39510       -0.97610        2.14490
H          3.94560       -1.28940        1.34560
H          2.51740       -2.20660        0.83590
H          2.79280        1.34550       -1.23890
H          4.87990        2.26070       -1.90400
H          6.49060        1.64960       -1.17940
