20
367	1
C          1.01390        0.08380        0.03920
C          2.55670        0.00500        0.05880
C          3.10130        1.33760        0.61610
C          3.04910       -1.14100        0.99110
N          2.58820       -2.46300        0.56940
C          3.09570       -0.17500       -1.38460
O          2.59520       -1.34100       -1.98760
H          0.61660        0.22740        1.06710
H          0.56120       -0.83580       -0.38510
H          0.67560        0.93770       -0.58680
H          2.73230        1.51300        1.65000
H          2.77700        2.19320       -0.01530
H          4.21270        1.33000        0.64190
H          2.70850       -0.95700        2.03540
H          4.16210       -1.14300        0.99880
H          1.55870       -2.54290        0.72750
H          3.04330       -3.18010        1.17930
H          4.21210       -0.17700       -1.38240
H          2.79240        0.68780       -2.01630
H          3.32550       -2.01340       -1.98470
