16
398	1
C          1.02690       -0.07870        0.12930
C          2.54530        0.15170        0.08020
F          3.18410       -1.05330        0.32750
C          2.97530        0.67970       -1.30680
N          2.61380       -0.25620       -2.36860
C          2.94930        1.14980        1.17750
F          4.32050        1.33450        1.18730
H          0.71920       -0.82390       -0.63430
H          0.47820        0.86940       -0.05720
H          0.73050       -0.47220        1.12500
H          4.07610        0.84120       -1.32520
H          2.48080        1.65660       -1.50480
H          3.12750       -1.15540       -2.23130
H          2.91820        0.14510       -3.28360
H          2.64480        0.76450        2.17360
H          2.45570        2.13190        1.01630
