19
435	1
C          2.99830        0.31880        1.31270
C          2.44100       -0.06150       -0.06190
C          3.01710        0.80290       -1.21390
C          2.39100        0.37610       -2.55360
O          2.73330        2.16550       -0.98350
C          4.51940        0.57900       -1.31320
C          5.42240        1.56000       -1.17950
H          2.53730       -0.32660        2.08980
H          2.76210        1.37770        1.54920
H          4.09840        0.17410        1.34770
H          1.33570        0.05840       -0.02850
H          2.66060       -1.13580       -0.25030
H          1.28850        0.51350       -2.53160
H          2.60380       -0.69410       -2.76700
H          2.80140        0.99120       -3.38340
H          1.74700        2.27080       -0.92810
H          4.87900       -0.42930       -1.50110
H          5.12740        2.58630       -0.98990
H          6.48000        1.33130       -1.26100
