17
479	1
C          2.98840        1.23420        0.84160
C          2.58000       -0.02590        0.07180
C          3.11320       -0.05900       -1.38460
C          2.63300       -1.33580       -2.09680
O          2.67650        1.07280       -2.09720
C          4.55720       -0.05900       -1.38460
C          5.74740       -0.05900       -1.38460
H          2.56140        1.19610        1.86590
H          2.60250        2.14280        0.33320
H          4.09290        1.30540        0.92750
H          1.46870       -0.06890        0.05500
H          2.94610       -0.91780        0.62780
H          1.52280       -1.36790       -2.12980
H          2.99160       -2.24450       -1.56530
H          3.01040       -1.36440       -3.14240
H          1.68310        1.06870       -2.09880
H          6.80560       -0.05890       -1.38420
