15
452	1
C          1.00700       -0.23190        0.23570
C          2.42090       -0.07000       -0.33330
F          3.25740        0.33390        0.69740
C          2.94280       -1.40850       -0.87400
F          2.13680       -1.88330       -1.89550
C          2.39890        0.95650       -1.44890
C          3.11100        2.08910       -1.40540
H          1.00670       -0.97850        1.05850
H          0.29670       -0.56870       -0.55010
H          0.64770        0.73670        0.64520
H          2.97060       -2.16410       -0.05990
H          3.97620       -1.28240       -1.26270
H          1.77880        0.76640       -2.32090
H          3.74600        2.32890       -0.55910
H          3.05830        2.79030       -2.23190
