14
405	1
C          1.11200       -0.14360       -0.47200
C          2.49840       -0.24260        0.16280
C          2.56170        0.47340        1.52250
F          2.25640        1.81500        1.36170
F          1.64250       -0.09410        2.38940
C          3.95500        0.35380        2.14260
F          4.90420        0.94300        1.32550
H          1.11240       -0.67330       -1.44800
H          0.83900        0.91860       -0.64730
H          0.34860       -0.61350        0.18370
H          3.23790        0.20910       -0.53370
H          2.75100       -1.31720        0.29720
H          4.21840       -0.71440        2.29690
H          3.96870        0.86510        3.12840
