9
464	1
F          2.71840       -0.09870        1.40160
C          2.29960        0.03310        0.08850
C          2.84000        1.32590       -0.51880
F          2.39140        1.44440       -1.82150
F          2.38710        2.40820        0.21360
C          4.28400        1.32590       -0.51880
N          5.43510        1.32590       -0.51880
H          1.18930        0.04930        0.06880
H          2.64870       -0.84550       -0.49610
