17
467	1
C          2.87370        1.28240       -0.26430
N          2.48590       -0.08880        0.09440
C          3.00320       -1.15440       -0.79640
C          2.53330       -2.51270       -0.24680
C          2.48810       -0.99580       -2.24290
C          4.44720       -1.15440       -0.79640
N          5.59830       -1.15440       -0.79640
H          2.50960        1.97720        0.52140
H          2.41320        1.59380       -1.22470
H          3.97720        1.38760       -0.31720
H          1.43970       -0.13040        0.13090
H          1.42320       -2.56570       -0.23430
H          2.89680       -2.65970        0.79400
H          2.91250       -3.35070       -0.87260
H          1.37710       -0.99640       -2.26110
H          2.84710       -1.83350       -2.88020
H          2.84870       -0.05390       -2.70600
