15
440	1
C          0.85370       -0.07150        0.02380
C          2.38490       -0.01690        0.11360
O          2.74660        1.27380        0.54300
C          2.86280       -1.06430        1.15000
O          4.25840       -1.01430        1.30990
C          2.94190       -0.26590       -1.27740
O          3.68550       -1.20710       -1.50780
H          0.39860        0.13640        1.01630
H          0.51380       -1.07340       -0.31810
H          0.47820        0.69170       -0.69210
H          3.73630        1.34780        0.50070
H          2.52860       -2.08560        0.84540
H          2.39790       -0.86050        2.13870
H          4.63330       -1.85390        0.93640
H          2.67130        0.40510       -2.08690
