20
431	1
C          2.89630       -1.54770       -0.07360
C          2.47320       -0.07980        0.03860
C          3.04620        0.63690        1.29000
C          2.55230        2.09690        1.30090
N          2.57090       -0.04400        2.50590
C          4.57090        0.65510        1.20700
C          5.38170        0.09350        2.11560
H          2.44160       -1.99310       -0.98370
H          2.55000       -2.12450        0.80950
H          3.99960       -1.63580       -0.15810
H          1.36160       -0.04480        0.06980
H          2.80290        0.45060       -0.88220
H          1.44280        2.13440        1.34980
H          2.87870        2.63140        0.38230
H          2.95840        2.63900        2.18210
H          1.52480       -0.06750        2.52070
H          2.88030        0.47770        3.35890
H          5.02820        1.15070        0.35460
H          5.00030       -0.42380        2.98810
H          6.45700        0.14970        1.98140
