16
474	1
C          0.89950       -0.07040        0.00950
C          2.43490       -0.04650        0.00540
C          2.94610        0.35300       -1.38770
C          2.94140        0.95400        1.05960
F          4.31950        1.05670        1.01690
C          2.92890       -1.39260        0.32890
C          3.33160       -2.49430        0.59700
H          0.50010        0.93300       -0.24140
H          0.50670       -0.36090        1.00610
H          0.50960       -0.79360       -0.73720
H          2.59290        1.36990       -1.64940
H          2.58480       -0.35350       -2.16310
H          4.05650        0.35260       -1.42270
H          2.64620        0.64350        2.08510
H          2.51440        1.96000        0.86810
H          3.68600       -3.46030        0.82950
