17
397	1
C          1.17710       -0.20890        0.12480
C          2.67800        0.11300        0.04740
F          3.39090       -1.05080        0.29080
C          3.04790        0.65500       -1.35210
N          2.73800       -0.31560       -2.39950
C          3.03550        1.14640        1.13510
O          4.40470        1.45230        1.11590
H          0.90150       -0.97990       -0.62540
H          0.56920        0.70250       -0.06210
H          0.92080       -0.60690        1.13000
H          4.13400        0.89420       -1.39280
H          2.48180        1.59230       -1.54940
H          3.33530       -1.16450       -2.27160
H          2.98250        0.10550       -3.32480
H          2.74820        0.77110        2.14460
H          2.46520        2.08640        0.97160
H          4.87200        0.70400        1.57080
