16
470	1
C          2.63070       -0.06380       -1.38070
O          2.41110        0.11350        0.00670
C          2.91900       -0.94840        0.81190
C          2.45360       -0.67520        2.24960
C          2.38300       -2.33610        0.38850
C          4.36300       -0.94840        0.81190
N          5.51400       -0.94840        0.81190
H          2.50480        0.91930       -1.87860
H          1.87270       -0.75100       -1.81230
H          3.66350       -0.39930       -1.61800
H          1.34320       -0.66050        2.29900
H          2.82440        0.31350        2.59900
H          2.82510       -1.45640        2.94940
H          1.27190       -2.33940        0.39900
H          2.74330       -3.12490        1.08480
H          2.72700       -2.61630       -0.62950
