17
439	1
C          0.91910       -0.06140       -0.35560
C          2.39650       -0.14720        0.07540
O          3.16040        0.80180       -0.63620
C          2.54500        0.09420        1.59400
O          2.06890        1.36310        1.96100
C          2.88930       -1.55360       -0.22830
C          3.90730       -1.81790       -1.05890
H          0.50320        0.94710       -0.14580
H          0.30490       -0.81050        0.19000
H          0.82640       -0.25380       -1.44630
H          2.74440        1.69520       -0.51640
H          3.61040       -0.02500        1.90320
H          1.96760       -0.66680        2.16300
H          2.83720        1.98940        1.90610
H          2.38970       -2.39010        0.25380
H          4.44760       -1.02920       -1.57120
H          4.20730       -2.84660       -1.23040
