14
525	1
C          1.06780       -0.18340       -0.06160
C          2.58310        0.04150       -0.08070
F          3.19710       -1.15670       -0.39720
C          2.94360        1.04080       -1.16720
C          3.29720        2.32050       -0.96290
C          3.05660        0.42550        1.26050
C          3.46350        0.71100        2.35880
H          0.71490       -0.51450       -1.06170
H          0.52910        0.75090        0.21470
H          0.80300       -0.97270        0.67540
H          2.89860        0.68900       -2.19170
H          3.33570        2.76640        0.02540
H          3.53450        2.94600       -1.82020
H          3.81430        0.97080        3.32240
