17
494	1
C          0.95620       -0.00430       -0.10520
C          2.50000        0.00740       -0.02230
C          3.03390        1.06060       -1.00980
C          3.03300        0.33920        1.37120
C          2.27070        0.59820        2.44490
C          3.01820       -1.35980       -0.41620
O          4.21920       -1.58100       -0.46100
H          0.53780        0.99140        0.15750
H          0.52890       -0.76800        0.58040
H          0.62250       -0.25050       -1.13700
H          2.66440        2.07280       -0.73620
H          2.69990        0.83380       -2.04580
H          4.14550        1.08550       -1.00290
H          4.11180        0.36900        1.50340
H          1.18870        0.59140        2.40590
H          2.74520        0.82450        3.39420
H          2.32680       -2.16000       -0.66480
