14
497	1
C          1.01770        0.04170        0.09400
C          2.54890        0.06200        0.07240
C          3.08010        0.53710        1.43140
C          3.02610       -1.35880       -0.16120
O          3.15900       -1.88430       -1.26250
C          3.03090        0.93900       -0.96870
N          3.41390        1.63670       -1.80010
H          0.63890       -0.63350        0.87040
H          0.60960       -0.30530       -0.86340
H          0.60560        1.03980        0.28410
H          2.72250       -0.10200        2.24730
H          2.76460        1.56460        1.64860
H          4.17670        0.51570        1.46000
H          3.16850       -1.96980        0.74810
