15
519	1
C          1.07060        0.06570       -0.02160
C          2.60560        0.06200        0.03020
C          3.17330        1.08660       -0.96180
C          3.02860        0.46350        1.42450
O          3.61610       -0.30470        2.17320
C          3.09370       -1.28250       -0.34340
C          3.48770       -2.38090       -0.64880
H          0.68080        1.06800        0.25280
H          0.65550       -0.67460        0.69710
H          0.70210       -0.19070       -1.03690
H          2.80530        2.10500       -0.71000
H          2.86240        0.85630       -2.00340
H          4.28550        1.10460       -0.92270
H          2.78680        1.46420        1.76890
H          3.86680       -3.33270       -0.91320
