22
537	1
C          2.92390        1.93400       -0.58840
C          2.45230        0.75800        0.28190
C          0.93370        0.59230        0.13410
C          3.15670       -0.56910       -0.08530
C          4.67570       -0.54250        0.14940
C          5.30360       -1.90260       -0.17190
N          6.74170       -1.86750        0.07310
H          2.38210        2.86060       -0.30180
H          2.73230        1.72760       -1.66330
H          4.00440        2.13420       -0.44520
H          2.66630        0.99670        1.34740
H          0.66400        0.35290       -0.91730
H          0.41300        1.52740        0.43230
H          0.56960       -0.22620        0.79120
H          2.94870       -0.82160       -1.14890
H          2.73020       -1.37510        0.55270
H          4.87920       -0.29240        1.21380
H          5.15130        0.22220       -0.49860
H          5.11270       -2.16700       -1.23630
H          4.84670       -2.68300        0.47550
H          7.18590       -1.18510       -0.58380
H          7.13670       -2.81240       -0.13800
