11
527	1
C          0.94350        0.17230       -0.01810
C          2.46500        0.09220       -0.03360
F          2.97410        1.33390        0.25800
C          2.95140       -0.84510        0.97080
C          3.35140       -1.61930        1.79780
C          2.95350       -0.32390       -1.34570
N          3.33540       -0.66150       -2.38320
H          0.59100        0.51440        0.97300
H          0.47260       -0.80360       -0.24090
H          0.59420        0.90950       -0.76520
H          3.71030       -2.28580        2.53030
