11
505	1
C          1.03280        0.08260        0.04620
C          2.56670        0.08060        0.05580
O          3.06370        1.02140        0.97340
C          3.08600       -1.25880        0.38460
N          3.49440       -2.31110        0.64120
C          3.06530        0.44340       -1.27700
N          3.45840        0.72620       -2.32830
H          0.63690       -0.19040        1.04770
H          0.64130       -0.64770       -0.69550
H          0.64910        1.09210       -0.21490
H          2.75360        0.75990        1.88110
