15
575	1
C          1.65700        1.31770        0.05920
C          3.15740        1.28590        0.30790
O          3.69220        0.11160       -0.26330
C          5.08970        0.08880       -0.06720
C          5.65330       -1.19870       -0.65390
F          7.02480       -1.23080       -0.47850
F          5.08960       -2.29270       -0.02200
H          1.22100        2.23670        0.50500
H          1.17550        0.42990        0.52160
H          1.45210        1.31500       -1.03250
H          3.32090        1.29900        1.40970
H          3.59830        2.19450       -0.16260
H          5.34030        0.10840        1.01840
H          5.57360        0.94360       -0.59290
H          5.42720       -1.24950       -1.74020
