22
556	1
C          2.67210        0.87570        0.64820
N          3.74480       -0.06440        0.32090
C          3.19480       -1.31890       -0.20440
C          4.33660       -2.27890       -0.56890
C          3.85470       -3.60080       -1.21140
C          5.06920       -4.43760       -1.63620
C          2.97170       -4.42820       -0.26370
H          3.11410        1.81670        1.03800
H          1.99980        0.45280        1.42710
H          2.08200        1.12250       -0.26060
H          4.27990       -0.26560        1.19850
H          2.60050       -1.10890       -1.12170
H          2.53340       -1.78120        0.55970
H          4.93700       -2.50100        0.34100
H          4.99350       -1.75510       -1.29860
H          3.26710       -3.36380       -2.12590
H          5.69120       -4.70440       -0.75440
H          5.69610       -3.86960       -2.35630
H          4.73740       -5.37340       -2.13480
H          3.52270       -4.67730        0.66860
H          2.66370       -5.37370       -0.75910
H          2.04250       -3.88410       -0.00120
