16
521	1
C          1.01260       -0.04900       -0.17480
C          2.54330        0.08580       -0.07930
N          3.15720       -0.33540       -1.34250
C          2.88820        1.55370        0.15820
C          3.46810        2.04520        1.26470
C          3.03610       -0.81720        0.98500
C          3.43170       -1.55490        1.85350
H          0.61320        0.60130       -0.98330
H          0.52850        0.24970        0.78110
H          0.72310       -1.09770       -0.40330
H          2.73260        0.19280       -2.14060
H          2.98070       -1.35380       -1.51240
H          2.63800        2.25760       -0.63060
H          3.73380        1.41990        2.10920
H          3.67020        3.11090        1.32950
H          3.77000       -2.20470        2.61720
