21
544	1
C          1.03710       -0.70280       -0.01400
C          2.55870       -0.59600       -0.05670
C          3.18780       -1.87390       -0.62360
C          4.71810       -1.76090       -0.66630
C          5.36770       -3.03120       -1.24950
C          6.88940       -2.88370       -1.34920
O          5.03880       -4.16600       -0.48690
H          0.60950        0.23460        0.39990
H          0.72750       -1.55100        0.63310
H          0.63200       -0.85710       -1.03690
H          2.93490       -0.42010        0.97480
H          2.83930        0.27260       -0.69170
H          2.80450       -2.04570       -1.65370
H          2.89690       -2.73670        0.01500
H          5.10540       -1.58350        0.36150
H          4.99590       -0.89050       -1.30120
H          4.97770       -3.18390       -2.27960
H          7.33440       -2.73030       -0.34280
H          7.15040       -2.01680       -1.99290
H          7.32770       -3.80030       -1.79800
H          5.38260       -4.02080        0.43350
