20
594	1
C          1.24090       -0.03280        0.65740
C          2.76170        0.00070        0.45390
N          3.37470       -1.21870        0.98710
C          3.10130        0.16430       -1.04010
C          4.61350        0.26450       -1.27730
C          4.90100        0.40670       -2.74750
C          5.55170        1.46620       -3.23690
H          1.00260       -0.12380        1.73840
H          0.79220       -0.89510        0.11910
H          0.78160        0.90480        0.27790
H          3.16580        0.87690        1.00840
H          2.98230       -2.06070        0.50530
H          3.17440       -1.29560        2.01070
H          2.62050        1.09300       -1.42110
H          2.69350       -0.70100       -1.60900
H          5.11660       -0.65740       -0.91630
H          5.01770        1.13010       -0.70630
H          4.57290       -0.37470       -3.42710
H          5.89510        2.26280       -2.58410
H          5.74460        1.53750       -4.30230
