18
663	1
N          2.49770       -1.58680        0.22100
C          2.14060       -0.22830       -0.17700
C          2.92850        0.81030        0.63170
C          4.46520        0.70910        0.54500
C          5.03410        0.95330       -0.83830
N          5.76660        2.13960       -1.09980
N          4.90510        0.07760       -1.77210
H          1.94190       -2.25790       -0.35690
H          2.23150       -1.73220        1.22200
H          1.05300       -0.06600       -0.00680
H          2.32130       -0.09110       -1.26240
H          2.64360        0.69870        1.70100
H          2.61510        1.82570        0.30460
H          4.82800       -0.26730        0.93230
H          4.85730        1.49460        1.22670
H          5.89500        2.85080       -0.36580
H          6.17130        2.30500       -2.03300
H          4.41990       -0.81660       -1.61730
