14
673	1
O          1.34450        0.45250        0.79240
C          2.20140        0.57480       -0.24410
O          2.12820        1.55300       -0.97100
C          3.23830       -0.48570       -0.51550
C          4.66910        0.07000       -0.44960
C          5.03500        0.60660        0.93660
F          4.94220       -0.39820        1.88320
H          1.37540       -0.30970        1.38730
H          3.05910       -0.89780       -1.53170
H          3.13690       -1.32010        0.21160
H          4.78840        0.88190       -1.19990
H          5.37830       -0.74530       -0.70980
H          4.36530        1.44440        1.22350
H          6.07870        0.98530        0.92010
