16
599	1
C          0.94190       -0.17970       -0.03030
C          2.46740       -0.17720       -0.09520
F          2.86030        0.02250       -1.40810
C          3.05020        0.93310        0.79870
C          4.58850        1.00060        0.76370
C          5.29370       -0.18570        1.37070
O          4.67540       -1.11120        1.87270
H          0.54080       -0.98510       -0.68130
H          0.53670        0.79420       -0.37910
H          0.60090       -0.36360        1.01090
H          2.82620       -1.17350        0.23390
H          2.71290        0.80010        1.85030
H          2.65960        1.90860        0.43390
H          4.91020        1.89730        1.33510
H          4.92590        1.12560       -0.28730
H          6.37840       -0.20470        1.38130
