17
636	1
C          0.91200        0.48580       -0.00660
C          2.39920        0.31430        0.33140
C          2.64990        0.81180        1.76540
N          2.77570       -1.10590        0.17170
C          4.22220       -1.33280        0.29490
C          4.53280       -2.74950        0.07090
N          4.78380       -3.86560       -0.10470
H          0.61090        1.55050        0.09930
H          0.28360       -0.13550        0.66670
H          0.72010        0.18160       -1.05760
H          2.97780        0.94930       -0.37770
H          2.12590        0.16360        2.49970
H          2.28220        1.85390        1.88070
H          3.73220        0.82990        2.00330
H          2.49080       -1.41270       -0.78980
H          4.57350       -1.08540        1.31570
H          4.77840       -0.72390       -0.45020
