16
650	1
C          1.34090       -0.54210        0.08450
C          2.83820       -0.25600       -0.01760
F          3.42020       -1.24680       -0.78750
C          3.10630        1.11160       -0.66210
C          4.61370        1.38330       -0.74620
C          4.86990        2.68870       -1.36870
C          5.07820        3.76140       -1.87690
H          1.18820       -1.54200        0.54070
H          0.88240       -0.55030       -0.92590
H          0.82950        0.21880        0.71230
H          3.28320       -0.28740        1.00170
H          2.61360        1.91220       -0.06600
H          2.67410        1.12120       -1.68680
H          5.11020        0.59640       -1.34330
H          5.05520        1.37670        0.27560
H          5.26380        4.70230       -2.32690
