16
661	1
C          0.86360       -0.61240       -0.02590
C          2.34310       -0.54590       -0.25140
O          2.80240       -0.87560       -1.33490
C          3.24180       -0.05190        0.85940
C          4.74400       -0.03180        0.52110
C          5.34470       -1.42830        0.32800
F          5.19360       -2.18040        1.47950
H          0.34320       -0.98620       -0.93360
H          0.47680        0.39950        0.21630
H          0.64570       -1.29870        0.81890
H          3.08300       -0.67540        1.76550
H          2.92920        0.98710        1.09970
H          5.28270        0.45100        1.36530
H          4.91430        0.58280       -0.38950
H          6.42890       -1.33080        0.10880
H          4.87280       -1.96390       -0.51940
