17
607	2
C          0.86400        0.05190        0.06010
C          2.39830        0.03550        0.08870
N          2.88470       -1.12830        0.83380
C          2.96620        0.02660       -1.34230
N          4.41860        0.07040       -1.33670
C          5.13430        0.07290       -2.48970
O          4.57520        0.03660       -3.57570
H          0.46380        0.08430        1.09570
H          0.47140       -0.85570       -0.44660
H          0.49990        0.95080       -0.48170
H          2.74640        0.96060        0.60040
H          2.53280       -2.01070        0.39500
H          2.53620       -1.08490        1.81910
H          2.58150        0.91490       -1.89080
H          2.62600       -0.89240       -1.86970
H          4.92940        0.10280       -0.44130
H          6.21830        0.10750       -2.44980
