18
654	1
C          0.90700       -0.05800       -0.15160
N          2.32560        0.25540        0.09050
C          2.49130        1.71730        0.18290
C          2.78280       -0.44100        1.31510
C          4.28790       -0.26610        1.57050
C          4.69720       -1.01720        2.76300
C          5.02790       -1.62950        3.74750
H          0.55910        0.42280       -1.09160
H          0.26770        0.29420        0.68930
H          0.76770       -1.15320       -0.27700
H          2.05290        2.21590       -0.70870
H          3.56540        1.99050        0.17680
H          2.00540        2.12260        1.09790
H          2.59520       -1.53320        1.19520
H          2.20770       -0.08840        2.20190
H          4.53930        0.79720        1.75380
H          4.86570       -0.63320        0.69620
H          5.32050       -2.16060        4.61490
