17
675	1
N          0.92790        0.04690       -0.04310
C          2.38220        0.01720       -0.15910
C          3.02490        0.70340        1.05360
C          4.55840        0.65760        1.00860
C          5.10890        1.41940       -0.17080
F          4.83390        2.74530       -0.29430
C          5.86450        0.81800       -1.09530
H          0.51910       -0.45030       -0.86720
H          0.60120        1.04010       -0.07780
H          2.68830        0.52580       -1.10010
H          2.71920       -1.04160       -0.20210
H          2.68790        0.18100        1.97550
H          2.68630        1.76130        1.11140
H          4.88900       -0.40490        0.99550
H          4.95620        1.12500        1.93440
H          6.10200       -0.23900       -1.02330
H          6.25060        1.38700       -1.93480
