16
617	1
C          0.81310       -1.43730       -0.53380
C          2.20660       -1.01160       -0.07850
F          3.15100       -1.80200       -0.71200
C          2.46520        0.46520       -0.40400
N          3.77680        0.87780        0.04280
N          4.18700        2.17530       -0.16290
C          5.34540        2.57910        0.22120
H          0.64810       -2.50640       -0.28300
H          0.70830       -1.30880       -1.63240
H          0.03720       -0.82970       -0.02090
H          2.28600       -1.16600        1.01970
H          1.70010        1.09450        0.10080
H          2.39040        0.62210       -1.50220
H          4.40110        0.20340        0.51510
H          5.64180        3.60720        0.04570
H          6.03540        1.90500        0.72090
