21
586	1
C          1.16750        0.01400       -0.03970
N          2.63700        0.09040       -0.06920
C          3.05950        1.05460       -1.09980
C          3.14810        0.44820        1.27380
C          4.67630        0.30910        1.39370
C          5.15110       -1.11110        1.06480
N          6.59620       -1.21460        1.23820
H          0.77850       -0.30870       -1.02970
H          0.71760        0.99700        0.22360
H          0.83390       -0.74560        0.69960
H          2.62600        0.77830       -2.08530
H          4.15890        1.03190       -1.23570
H          2.73870        2.08790       -0.84320
H          2.70370       -0.23570        2.03190
H          2.84850        1.48620        1.54370
H          4.96640        0.55410        2.43900
H          5.18670        1.03900        0.73240
H          4.88480       -1.37080        0.01600
H          4.65270       -1.83390        1.74700
H          7.07080       -0.58610        0.54980
H          6.88630       -2.19580        1.02260
