21
591	1
C          3.15490       -0.32570        1.70730
C          2.63600       -0.32470        0.26060
C          1.12050       -0.56710        0.26240
C          2.94850        0.99740       -0.47870
C          4.45130        1.26890       -0.63870
C          4.66770        2.54430       -1.40870
C          5.33080        2.56040       -2.56900
H          2.89700       -1.28580        2.20320
H          2.70230        0.50740        2.28680
H          4.25870       -0.23120        1.73910
H          3.11440       -1.16590       -0.28840
H          0.59180        0.24760        0.80280
H          0.88550       -1.53430        0.75610
H          0.73620       -0.61250       -0.77900
H          2.47050        1.84820        0.05660
H          2.50720        0.93660       -1.49890
H          4.92340        0.40660       -1.15980
H          4.93470        1.39050        0.35150
H          4.27540        3.47510       -1.00920
H          5.73590        1.64780       -2.99540
H          5.47040        3.49670       -3.09940
