15
716	1
N          2.56770       -3.35680       -2.15190
C          3.02910       -2.08420       -2.18350
O          2.24690       -1.16400       -2.37930
N          4.35420       -1.83250       -1.99830
C          4.87950       -0.47790       -2.02600
C          6.39020       -0.45910       -1.78960
O          7.03910       -1.17720       -2.80230
H          1.56490       -3.55070       -2.29160
H          3.21020       -4.14590       -1.98850
H          4.99680       -2.62330       -1.83370
H          4.38790        0.12340       -1.23000
H          4.66190       -0.01280       -3.01270
H          6.60890       -0.91340       -0.79720
H          6.73630        0.59840       -1.80200
H          8.00690       -1.14400       -2.58540
