17
704	2
C          1.01940       -0.28360        0.17720
C          2.52350       -0.29950        0.18610
N          3.16040       -1.36120        0.53910
N          3.23240        0.86610       -0.23470
C          4.68210        0.96460       -0.23380
C          5.26200        1.11170        1.18010
O          5.04950       -0.03270        1.96060
H          0.59340       -1.25270        0.51360
H          0.65840       -0.07790       -0.85200
H          0.65610        0.51600        0.85590
H          2.66710       -2.21650        0.83470
H          2.69110        1.65470       -0.62050
H          4.96690        1.88880       -0.78310
H          5.12880        0.10150       -0.77290
H          4.84040        2.02080        1.67030
H          6.35820        1.27300        1.10480
H          4.28860        0.16400        2.56730
