17
720	1
C          0.95220        0.61540       -0.11950
C          2.33920        0.08740       -0.46760
N          3.03760       -0.34490        0.74700
N          4.31440       -0.81440        0.42620
C          5.21740       -1.25480        1.44070
N          6.49140       -1.75510        1.07320
N          4.89760       -1.20050        2.68710
H          0.43670        0.95070       -1.04400
H          1.03510        1.47560        0.57800
H          0.34530       -0.18320        0.35740
H          2.91450        0.90290       -0.95860
H          2.23790       -0.76380       -1.17760
H          2.50540       -1.13800        1.17690
H          4.63000       -0.84550       -0.55710
H          6.76490       -1.80630        0.08150
H          7.15380       -2.07520        1.79480
H          3.98820       -0.84000        3.00780
