15
758	1
O          1.12440        0.04010        0.08800
C          2.47140       -0.04140        0.09790
O          3.10820        0.47690       -0.80680
C          3.17320       -0.76780        1.22080
C          4.70110       -0.76810        1.07840
C          5.33270       -1.48840        2.23950
C          6.09790       -2.56980        2.06320
H          0.59320       -0.36020        0.79060
H          2.80970       -1.81830        1.23820
H          2.89470       -0.27810        2.17930
H          5.07680        0.27770        1.06970
H          4.97880       -1.25040        0.11450
H          5.16250       -1.11780        3.24630
H          6.28830       -2.96560        1.07030
H          6.53940       -3.06600        2.92140
