17
698	1
C          3.67340       -0.24670        6.07010
C          4.04660       -0.05500        4.60790
O          5.20480       -0.81080        4.32770
C          5.56450       -0.63870        2.97320
C          6.80240       -1.43960        2.63780
N          7.45410       -2.23450        3.61920
N          7.27790       -1.40370        1.44350
H          2.76230        0.34260        6.30650
H          4.50390        0.09670        6.72300
H          3.47110       -1.31980        6.27360
H          4.23210        1.03120        4.44410
H          3.18750       -0.40160        3.98930
H          5.79430        0.43150        2.76620
H          4.74670       -0.99560        2.30620
H          7.10250       -2.28780        4.58520
H          8.29670       -2.77290        3.37000
H          6.83160       -0.83820        0.70590
