14
781	1
F          3.44640        1.63820       -0.98900
C          2.71000        0.81750       -0.19360
C          1.80010        1.34680        0.63070
C          2.93520       -0.67050       -0.26280
N          4.29900       -0.99820        0.08410
N          4.70910       -2.31170        0.05870
C          5.91370       -2.64210        0.36210
H          1.65590        2.42190        0.66130
H          1.19620        0.71720        1.27710
H          2.72910       -1.01090       -1.29970
H          2.25000       -1.21160        0.42620
H          4.96140       -0.25140        0.35150
H          6.20870       -3.68510        0.33330
H          6.64460       -1.89090        0.64810
