13
771	4
N          2.36090        1.15860       -1.45690
C          2.27780        0.53610       -0.25810
O          1.52610        0.97040        0.60180
C          3.10170       -0.69010        0.02030
N          4.51490       -0.36370       -0.05900
C          5.36420       -0.95620       -0.93930
O          4.97130       -1.80670       -1.72360
H          1.79500        1.99860       -1.64870
H          2.98900        0.79960       -2.19080
H          2.81190       -1.48000       -0.70540
H          2.88250       -1.07190        1.04110
H          4.89180        0.34850        0.58440
H          6.41090       -0.66970       -0.94850
