17
764	2
C          3.62780       -1.95300        0.00780
C          2.61700       -0.84120       -0.10280
C          1.32110       -1.12030       -0.31620
C          3.07930        0.58920        0.03650
N          4.03000        0.90430       -1.00780
C          5.36210        1.29610       -0.69890
N          6.19610        1.57310       -1.63530
H          3.16150       -2.95520       -0.10590
H          4.11970       -1.90730        1.00180
H          4.39920       -1.83810       -0.78200
H          0.98130       -2.14680       -0.41500
H          0.58560       -0.32550       -0.39500
H          3.53400        0.71630        1.04320
H          2.22710        1.29920       -0.03880
H          3.72940        0.84370       -1.99280
H          5.68600        1.36290        0.33500
H          5.92270        1.51940       -2.62760
