17
752	1
N          1.24170        0.91280        1.00920
C          2.06730       -0.06800        0.39670
N          2.05700       -1.28080        0.82540
C          2.95160        0.30450       -0.76500
C          4.42870        0.07130       -0.43280
C          5.29140        0.43290       -1.61210
C          6.22860        1.38230       -1.53170
H          0.63210        0.66380        1.80190
H          1.24390        1.88500        0.66870
H          1.45950       -1.56380        1.61590
H          2.80620        1.37690       -1.02050
H          2.65970       -0.30630       -1.64710
H          4.59870       -1.00040       -0.19300
H          4.70090        0.67720        0.46030
H          5.14840       -0.09290       -2.55180
H          6.39710        1.92630       -0.60740
H          6.83460        1.61920       -2.40010
