15
743	1
C          3.29600       -1.54300       -0.27260
O          2.93850       -0.56970        0.68330
C          2.69440        0.66410        0.04200
O          3.89310        1.28470       -0.26910
C          4.26610        1.66550       -1.51940
C          5.59200        2.32720       -1.71590
O          3.53590        1.47210       -2.48160
H          3.51020       -2.49200        0.26030
H          4.22500       -1.26080       -0.81560
H          2.45780       -1.74660       -0.97520
H          2.14740        1.31340        0.75630
H          2.01090        0.54980       -0.83210
H          5.63160        3.26170       -1.11850
H          5.75430        2.57690       -2.78640
H          6.39960        1.64400       -1.37960
