19
726	1
C          1.42000        2.24510       -0.82230
C          1.14750        0.79980       -0.41550
C          2.41720       -0.04630       -0.49110
O          2.12470       -1.34440       -0.11630
C          3.01360       -2.37810       -0.06320
C          2.50100       -3.72240        0.36840
C          4.31490       -2.22640       -0.38200
H          0.48050        2.83340       -0.75710
H          1.79480        2.28810       -1.86710
H          2.17310        2.70150       -0.14510
H          0.37760        0.37140       -1.09370
H          0.75470        0.78370        0.62440
H          3.18270        0.37820        0.19570
H          2.80380       -0.03620       -1.53430
H          2.07600       -3.64160        1.39050
H          3.29840       -4.49650        0.37950
H          1.70260       -4.05110       -0.32920
H          4.71690       -1.27040       -0.69690
H          4.99940       -3.06780       -0.33020
