14
756	2
N          2.03680        0.51820       -1.53500
C          2.19480       -0.29610       -0.46490
O          1.50370       -1.30060       -0.37620
C          3.18620        0.00960        0.64360
C          4.66690       -0.10710        0.22650
C          5.24510        1.04150       -0.55750
O          4.61140        2.06170       -0.76710
H          1.34890        0.28170       -2.26550
H          2.56900        1.38740       -1.63440
H          3.03320       -0.77140        1.42190
H          2.97520        0.99000        1.12170
H          4.80480       -1.05620       -0.33490
H          5.28120       -0.16930        1.15050
H          6.27800        0.98480       -0.88460
