17
686	1
C          1.36720        2.18760        0.87090
O          2.63300        2.36340        1.46450
C          3.37490        1.16890        1.34640
C          4.74570        1.32090        2.01480
C          4.64580        1.55910        3.50860
N          4.05970        2.75070        4.00870
N          5.11310        0.69370        4.33860
H          0.80430        3.13910        0.96270
H          0.77670        1.40750        1.40080
H          1.45550        1.96580       -0.21600
H          3.55640        0.93940        0.27130
H          2.84630        0.31590        1.83220
H          5.30990        2.15540        1.54590
H          5.30980        0.38240        1.82050
H          3.72620        3.48480        3.36910
H          3.99650        2.91000        5.02490
H          5.55470       -0.18120        4.01960
