14
779	2
N          2.06060        1.46770       -0.39940
C          1.67060        0.22470       -0.01890
O          0.49240        0.02080        0.23150
C          2.64790       -0.92450        0.12570
N          4.00310       -0.58630       -0.24820
N          4.30430       -0.27970       -1.55710
C          5.50740       -0.01010       -1.92040
H          1.36360        2.22290       -0.48080
H          3.04410        1.69180       -0.59830
H          2.31050       -1.77490       -0.50480
H          2.63180       -1.25160        1.18790
H          4.75060       -0.64100        0.46200
H          5.71530        0.22790       -2.95760
H          6.32280       -0.01640       -1.20270
