16
689	1
C          1.04510        0.00730        0.10780
O          2.45370        0.04030        0.07530
C          2.87630        0.96030       -0.90790
C          4.40330        0.99460       -0.92720
C          4.90170        1.95540       -1.97550
F          4.57770        1.74570       -3.27950
C          5.65960        3.00790       -1.65070
H          0.73130       -0.72060        0.88390
H          0.62530       -0.34760       -0.85970
H          0.62310        0.99500        0.39870
H          2.51050        1.98590       -0.66810
H          2.51890        0.64520       -1.91590
H          4.79370       -0.01910       -1.16090
H          4.76770        1.28220        0.08410
H          5.93660        3.20180       -0.61890
H          6.00790        3.68510       -2.42380
