15
825	1
C         -0.09080       -0.88800        0.20780
C          1.05160       -1.28000       -0.68530
C          0.94830       -2.37430       -1.46630
O          2.16960       -0.49810       -0.67000
C          3.30980       -0.70570       -1.42210
C          4.30640        0.36270       -1.10480
O          4.71450        1.10740       -1.98160
H         -0.95260       -1.58480        0.12430
H         -0.43590        0.13110       -0.06470
H          0.25440       -0.88180        1.26270
H          0.04560       -2.97770       -1.45740
H          1.75370       -2.68480       -2.12180
H          3.05800       -0.67810       -2.50560
H          3.75750       -1.69110       -1.16980
H          4.67090        0.47710       -0.08910
