13
853	1
C          2.74290       -2.43590       -0.15790
C          2.91980       -0.96430       -0.26800
O          2.00020       -0.26640       -0.67350
O          4.11360       -0.42330        0.08170
C          4.41260        0.92130        0.02390
C          4.78960        1.39280        1.35600
C          5.10400        1.78230        2.45210
H          1.72490       -2.73600       -0.48380
H          2.89930       -2.73370        0.89950
H          3.50040       -2.93200       -0.79950
H          3.55100        1.53090       -0.32600
H          5.25670        1.06870       -0.67710
H          5.36780        2.15700        3.40550
