14
796	1
N          2.32710        1.78850        0.08560
C          2.17420        0.37550        0.06980
N          1.29750       -0.18580        0.82500
C          3.01770       -0.47650       -0.84610
O          4.35490       -0.41230       -0.51430
N          5.04070        0.70760       -0.62370
C          6.28150        0.74270       -0.30190
H          1.74890        2.37030        0.70930
H          2.99510        2.25190       -0.54590
H          0.70040        0.36900        1.45580
H          2.86920       -0.16330       -1.90190
H          2.69950       -1.53760       -0.75690
H          6.83680        1.66930       -0.39550
H          6.78330       -0.14830        0.06460
