19
875	2
C          1.77680       -0.24870       -0.89610
N          2.88030       -0.05800        0.01360
C          3.53300        1.04990        0.05810
N          4.61320        1.19850        0.96760
C          5.36980        2.43340        1.04390
C          5.24360        3.02670        2.44840
C          6.83510        2.15960        0.69990
H          1.36660       -1.27080       -0.76260
H          2.12260       -0.13490       -1.94600
H          0.97470        0.49060       -0.68470
H          3.25900        1.87280       -0.59930
H          4.86480        0.41190        1.58670
H          4.97550        3.17780        0.31590
H          5.63850        2.31990        3.20970
H          4.17620        3.23510        2.67460
H          5.80910        3.98050        2.51540
H          7.27510        1.42830        1.41170
H          7.42280        3.10140        0.74260
H          6.90950        1.74600       -0.32840
