12
874	1
O          0.83680       -1.50710       -0.15570
N          2.14380       -1.42810       -0.28290
C          2.87900       -1.14020        0.72970
C          4.36970       -1.04890        0.58140
C          5.06920       -2.06090        1.48520
F          6.43830       -1.95980        1.31910
F          4.75880       -1.81750        2.81190
H          0.28890       -1.72430       -0.92160
H          2.42460       -0.95780        1.70050
H          4.69670       -0.02210        0.85080
H          4.66150       -1.24600       -0.47390
H          4.75250       -3.09220        1.21930
