14
795	1
C          2.61190       -1.16440       -2.00460
C          2.12730       -0.33290       -0.85490
O          1.21740        0.46500       -1.02270
C          2.74940       -0.48240        0.50190
O          4.08780       -0.17600        0.43300
N          4.84610       -0.24490        1.50760
C          6.09480        0.03960        1.43940
H          2.04000       -0.92950       -2.92760
H          2.48100       -2.24090       -1.76730
H          3.68700       -0.95960       -2.19030
H          2.62090       -1.53050        0.84860
H          2.25210        0.19830        1.22780
H          6.71090       -0.02010        2.32960
H          6.54280        0.34040        0.49660
