18
876	2
C          1.27970        0.21540       -0.04550
C          2.55720       -0.46580        0.44520
C          2.55380       -0.58840        1.96890
N          2.64680       -1.78890       -0.14120
C          3.63510       -2.15590       -0.88340
N          3.67120       -3.46370       -1.43970
N          2.64310       -4.37420       -1.22020
H          1.19370        1.23350        0.39090
H          0.38500       -0.37730        0.24350
H          1.30300        0.30870       -1.15210
H          3.42630        0.16570        0.14890
H          1.69310       -1.20260        2.31090
H          2.48750        0.41760        2.43570
H          3.49450       -1.07120        2.30970
H          4.45390       -1.47190       -1.09170
H          4.47410       -3.74070       -2.02240
H          1.75380       -3.96270       -1.58480
H          2.55640       -4.53480       -0.19070
