12
821	2
C          2.19480       -0.75780       -2.19050
C          2.66630       -0.46870       -0.79410
O          3.83820       -0.18080       -0.60240
N          1.80730       -0.52350        0.25410
O          0.53530       -0.83400        0.06050
C         -0.36730       -0.90350        1.07120
O         -0.04080       -0.67850        2.22690
H          3.03210       -0.66530       -2.91490
H          1.39850       -0.03790       -2.47350
H          1.79130       -1.79080       -2.24320
H          2.15920       -0.31990        1.20340
H         -1.39610       -1.16340        0.84840
