17
842	1
C          2.86320       -1.41770       -0.92380
C          2.62370       -0.04360       -0.36550
C          1.88970        0.85990       -1.04950
C          3.18630        0.28130        1.00040
C          4.71780        0.23090        1.04950
C          5.20330        0.54800        2.40230
C          5.59680        0.80050        3.51540
H          2.30230       -1.59650       -1.85530
H          2.54400       -2.17830       -0.18510
H          3.93630       -1.56470       -1.13630
H          1.46870        0.62640       -2.02420
H          1.69770        1.85190       -0.65050
H          2.76880       -0.44820        1.72250
H          2.84860        1.27890        1.32780
H          5.14370        0.95420        0.33030
H          5.08680       -0.77290        0.77230
H          5.93760        1.02280        4.49410
