13
851	1
N          1.20580       -0.13660        0.33460
C          2.54900       -0.10280        0.16610
O          3.18950       -1.14420        0.21200
N          3.18030        1.08460       -0.04280
C          4.62060        1.16210       -0.20490
C          5.04420        2.55990       -0.35230
C          5.38090        3.71340       -0.44780
H          0.72370       -1.03190        0.50310
H          0.65010        0.73090        0.30350
H          2.61850        1.95070       -0.07380
H          4.93470        0.58550       -1.10170
H          5.12050        0.74200        0.69370
H          5.66970        4.72900       -0.51660
