15
801	2
C          1.06890        0.17670       -0.44390
C          2.55030       -0.00180       -0.25510
N          3.11930       -1.11390       -0.56960
N          3.31840        1.07380        0.28280
C          4.75020        0.97940        0.49270
C          5.47300        0.79800       -0.80860
O          5.38220        1.64180       -1.68600
H          0.59350       -0.73390       -0.86650
H          0.88550        1.02450       -1.13630
H          0.59660        0.39940        0.53560
H          2.58490       -1.90520       -0.95750
H          2.83600        1.94440        0.55250
H          4.97140        0.12920        1.17310
H          5.11720        1.91340        0.97030
H          6.08300       -0.08440       -0.97190
