20
884	1
C          0.88040       -0.77250        0.10890
C          2.33300       -0.68260        0.47100
C          2.86390        0.44540        0.96700
C          4.32310        0.53150        1.33310
N          4.48810        0.88150        2.75820
C          4.02890       -0.20910        3.63680
C          5.89960        1.18480        3.04270
H          0.78720       -1.02080       -0.96860
H          0.34210        0.18020        0.30210
H          0.40440       -1.57640        0.70780
H          2.95700       -1.55980        0.32440
H          2.23990        1.32290        1.11440
H          4.76010        1.33240        0.69710
H          4.86220       -0.41630        1.10080
H          2.94620       -0.40360        3.48540
H          4.15580        0.07770        4.70310
H          4.59530       -1.14780        3.44530
H          6.24250        2.03930        2.42030
H          6.55060        0.30510        2.83910
H          6.02150        1.48660        4.10540
