19
879	1
C          4.96170       -1.54920        3.00470
C          5.17560       -1.98250        1.58430
C          4.91740       -1.15410        0.55340
O          5.08900       -1.50510       -0.75430
C          5.69550       -2.65370       -1.24120
C          5.44180       -2.73350       -2.74650
C          7.20820       -2.63060       -0.97300
H          4.22320       -2.22400        3.48500
H          4.58540       -0.50590        3.07290
H          5.92310       -1.61520        3.55510
H          5.54010       -2.98870        1.41540
H          4.53850       -0.15810        0.76100
H          5.23520       -3.55430       -0.77890
H          5.87310       -1.84940       -3.26370
H          4.34870       -2.76100       -2.94290
H          5.89610       -3.65600       -3.16740
H          7.67190       -1.74310       -1.45460
H          7.68230       -3.54870       -1.38090
H          7.42740       -2.58920        0.11230
