14
845	2
N          1.18850       -0.38400       -0.22940
C          2.53450       -0.34210       -0.13750
O          3.18790       -1.36510       -0.29160
C          3.20760        0.97280        0.15240
C          4.73260        0.86600        0.21370
C          5.33140        2.17910        0.48110
C          5.82140        3.25810        0.70410
H          0.70300       -1.27030       -0.42670
H          0.63800        0.47810       -0.10370
H          2.81900        1.34920        1.12400
H          2.91600        1.68730       -0.64780
H          5.12020        0.48850       -0.75570
H          5.02700        0.16330        1.02200
H          6.25520        4.20210        0.90740
