19
970	1
C          0.96650        0.26750       -0.31780
C          2.42750        0.21670        0.13620
C          2.86350        1.56930        0.70520
C          2.59700       -0.85540        1.18590
C          3.41670       -1.90070        0.99470
C          3.58290       -2.96660        2.04120
O          3.23110       -4.21490        1.51260
H          0.83490        1.04570       -1.09960
H          0.29500        0.50240        0.53650
H          0.66760       -0.71210       -0.74870
H          3.05900       -0.00430       -0.75360
H          2.24840        1.84280        1.58980
H          2.75370        2.36240       -0.06500
H          3.93100        1.52730        1.01100
H          2.03720       -0.76940        2.11410
H          3.97810       -1.99170        0.06900
H          2.98800       -2.75990        2.96060
H          4.64900       -3.00000        2.34760
H          2.23870       -4.24230        1.48720
