18
888	2
C          0.83080        0.04570       -0.41850
N          2.16950        0.11420        0.11520
C          2.85340        1.20340        0.08040
N          4.16290        1.23540        0.61970
N          4.89700        2.41960        0.59100
C          5.20230        2.81840        1.96950
C          6.12900        2.19450       -0.17360
H          0.43560       -0.98190       -0.28190
H          0.83780        0.28660       -1.50320
H          0.16840        0.75850        0.11820
H          2.43150        2.10550       -0.35760
H          4.56520        0.38070        1.03890
H          4.25730        2.98440        2.53010
H          5.76960        3.77380        1.97420
H          5.79820        2.03810        2.49370
H          5.87700        1.89350       -1.21300
H          6.75250        1.39760        0.29010
H          6.72150        3.13310       -0.22800
