12
900	1
O          0.97180       -0.07720        0.07220
C          2.31590        0.01580       -0.00750
O          2.82540        0.88930       -0.69600
C          3.16710       -0.96480        0.75500
C          4.64280       -0.70730        0.57880
C          5.45870       -1.62790        0.05520
F          6.78270       -1.35890       -0.08620
H          0.39820        0.53770       -0.40680
H          2.90080       -1.99000        0.41730
H          2.92550       -0.88110        1.83540
H          5.05120        0.25070        0.88820
H          5.07800       -2.59400       -0.26170
