13
917	2
C          1.61740        0.65930        0.00790
C          3.03870        0.22590        0.20840
O          3.85970        1.03150        0.62500
N          3.40300       -1.05460       -0.07310
C          4.74170       -1.51470        0.10110
C          5.07060       -2.77790       -0.18340
F          6.34960       -3.20240       -0.01260
H          1.48860        1.72800        0.28290
H          0.94670        0.04340        0.64300
H          1.33440        0.52780       -1.05750
H          2.68740       -1.71100       -0.42320
H          5.51170       -0.84130        0.46810
H          4.32410       -3.47490       -0.55180
