19
891	1
C          0.64590        0.45940       -0.56260
C          2.11010        0.65780       -0.82010
C          2.84680        1.49260       -0.07080
C          4.31550        1.69260       -0.33020
C          4.59740        3.13840       -0.66640
C          3.97360        3.74570       -1.89750
C          5.40340        3.87330        0.11700
H          0.07380        0.74530       -1.46940
H          0.28550        1.07150        0.29200
H          0.45630       -0.61050       -0.33730
H          2.57020        0.10740       -1.63580
H          2.38490        2.04300        0.74460
H          4.66950        1.06000       -1.17330
H          4.86660        1.37550        0.58160
H          4.29590        3.17560       -2.79380
H          4.26840        4.80830       -2.03490
H          2.86730        3.70160       -1.82080
H          5.86070        3.44490        1.00370
H          5.61460        4.91180       -0.11940
