14
942	1
C          1.03790        0.09040        0.07440
C          2.48530       -0.31140        0.02800
C          2.86910       -1.47520        0.59290
O          3.35360        0.53890       -0.59550
C          4.69380        0.38570       -0.75870
C          5.38800        1.32610       -1.39890
F          6.72850        1.18710       -1.56980
H          0.40430       -0.65720        0.59880
H          0.65680        0.20680       -0.96160
H          0.94420        1.06140        0.60390
H          2.13960       -2.11730        1.07740
H          3.89390       -1.81650        0.59120
H          5.22290       -0.48090       -0.38380
H          4.88810        2.20800       -1.78750
