12
951	1
N          0.75540        1.05010        0.23700
N          2.08700        0.71560        0.15910
C          2.96900        1.30890        0.88230
O          4.27090        0.94890        0.77470
C          5.27530        1.51480        1.49400
N          6.54410        1.08690        1.31580
O          5.04380        2.40610        2.30010
H          0.07130        0.55800       -0.35420
H          0.42780        1.78790        0.87930
H          2.66840        2.09360        1.57410
H          6.74800        0.33700        0.63930
H          7.31810        1.50510        1.85320
