12
948	1
C          0.77520        0.04240       -0.06330
C          2.26040       -0.10400       -0.15490
O          2.91360        0.71610       -0.78580
O          2.86410       -1.14990        0.46650
C          4.20070       -1.37130        0.44380
N          4.68410       -2.38680        1.06050
O          5.97920       -2.61820        1.04980
H          0.43170        0.94080       -0.61940
H          0.47820        0.14310        1.00140
H          0.28740       -0.85620       -0.49510
H          4.86650       -0.69700       -0.09150
H          6.33710       -3.38520        1.51640
