12
944	1
C          0.04600       -0.15180        0.05540
C          1.45890        0.20630        0.38800
O          2.36760       -0.55000        0.07240
O          1.71310        1.37110        1.03840
C          2.95680        1.78590        1.38470
C          3.11520        2.94510        2.02250
F          4.35840        3.36640        2.37230
H         -0.00030       -1.12810       -0.47320
H         -0.39050        0.63190       -0.59810
H         -0.54840       -0.22060        0.99020
H          3.83130        1.18440        1.14910
H          2.25380        3.55930        2.26630
