13
960	1
C          1.02750        0.06310        0.09930
C          2.49010        0.05970        0.07150
C          3.69550        0.05640        0.04860
C          5.16270        0.05260        0.02020
C          5.71640       -1.16340        0.75700
F          7.09790       -1.14860        0.69860
F          5.32200       -1.14140        2.08360
H          0.65830        1.10620        0.01950
H          0.67450       -0.38230        1.05210
H          0.64000       -0.53240       -0.75290
H          5.53730        0.98350        0.49610
H          5.49950        0.03130       -1.03790
H          5.34940       -2.09890        0.28240
