14
967	1
C          0.99470        0.10780        0.08080
C          2.45700        0.08210        0.05030
C          3.66220        0.06120        0.02420
C          5.12690        0.03540       -0.00770
C          5.62390        0.78130       -1.21440
F          5.31450        2.09790       -1.35780
C          6.36730        0.17770       -2.14750
H          0.59740       -0.74970       -0.50030
H          0.63210        1.05650       -0.36560
H          0.64510        0.03620        1.13130
H          5.46250       -1.02410       -0.00960
H          5.51870        0.52430        0.90830
H          6.63200       -0.87170       -2.06030
H          6.71610        0.73740       -3.00940
