13
930	3
C          1.18260       -0.34580        0.30190
C          2.61970        0.07760        0.24240
O          3.00560        0.99680        0.95150
N          3.48010       -0.56090       -0.59630
C          4.85320       -0.19840       -0.69100
N          5.62730       -0.83040       -1.49710
O          6.89820       -0.50430       -1.59320
H          0.61910        0.27350        1.03220
H          1.12010       -1.40990        0.61210
H          0.71790       -0.22900       -0.69950
H          3.12880       -1.33310       -1.18370
H          5.25270        0.61150       -0.08440
H          7.47560       -0.98410       -2.20200
