17
995	1
C          2.67650        0.75980       -1.24440
N          3.68420        0.61330       -0.22630
N          3.68360       -0.50090        0.58120
C          4.56990       -0.66180        1.50150
C          4.56140       -1.88900        2.37940
C          4.45530       -1.50140        3.85700
O          3.52900       -2.77700        2.02420
H          2.82950        1.71160       -1.79580
H          1.67010        0.77080       -0.77570
H          2.74100       -0.08710       -1.95920
H          4.40030        1.34790       -0.11050
H          5.34310        0.08730        1.65500
H          5.52850       -2.41550        2.23290
H          3.50330       -0.96280        4.05310
H          5.30410       -0.84430        4.14410
H          4.48730       -2.41440        4.48860
H          2.66300       -2.33430        2.22680
