10
1029	1
F          1.78510       -1.23010        0.78470
C          2.35770       -0.21010        0.09670
F          1.37320        0.35060       -0.65020
C          2.91730        0.79440        1.04250
C          4.20590        1.16580        1.09230
C          4.67460        2.12300        2.00930
N          5.05820        2.90670        2.76000
H          3.10800       -0.62870       -0.58000
H          2.18940        1.23120        1.72190
H          4.93860        0.73510        0.41810
