16
1000	1
C          2.70060        1.19860        0.09190
O          3.77550        0.42980       -0.28190
N          3.79670       -0.86060       -0.01980
C          4.80340       -1.57890       -0.36860
C          4.83980       -3.05900       -0.07730
C          6.06780       -3.41900        0.76360
O          3.66050       -3.49510        0.55480
H          2.87670        2.24910       -0.21800
H          2.57420        1.16290        1.19490
H          1.77780        0.82560       -0.40110
H          5.64310       -1.12140       -0.88620
H          4.92240       -3.59220       -1.04830
H          6.03450       -2.90180        1.74650
H          6.99770       -3.12110        0.23340
H          6.09680       -4.51580        0.93650
H          3.62470       -3.07670        1.45520
