14
1045	1
C          0.77260        0.09710       -0.07960
N          2.20760        0.15120       -0.23800
O          2.77540        1.22130       -0.81710
C          3.01370       -0.93220        0.20560
N          4.28960       -0.89140        0.06020
N          5.07320       -1.93480        0.48670
C          6.34720       -1.89330        0.34090
H          0.30430        1.01960       -0.48410
H          0.51610        0.00950        0.99730
H          0.36610       -0.77910       -0.62760
H          2.95510        1.85130       -0.07250
H          2.54600       -1.79830        0.66960
H          6.95580       -2.72350        0.68170
H          6.82550       -1.03400       -0.12120
