16
1015	1
C          0.54370       -0.48160        0.72340
N          1.93910       -0.10250        0.69430
C          2.89390       -0.84830        1.49940
N          2.32300        0.96370       -0.10290
C          3.53940        1.38550       -0.20340
C          3.85610        2.54560       -1.09160
F          4.41320        3.56190       -0.33900
H          0.43140       -1.53000        0.37450
H         -0.05650        0.17820        0.06060
H          0.15170       -0.39410        1.75880
H          2.39100       -1.66210        2.06560
H          3.38090       -0.17120        2.23230
H          3.66160       -1.31070        0.84380
H          4.35150        0.91870        0.34300
H          2.93960        2.92570       -1.59200
H          4.58160        2.22580       -1.86800
