12
987	1
F          3.66620        0.63170       -0.67110
C          2.53690        0.05080       -0.11910
C          2.86940       -0.95850        0.94720
C          4.13580       -1.24300        1.30260
C          4.46870       -2.25260        2.36900
F          5.18230       -1.63050        3.37580
F          3.33830       -2.83700        2.91520
H          1.96420       -0.45140       -0.92620
H          1.90580        0.84930        0.32320
H          2.04080       -1.46320        1.43390
H          4.96410       -0.73790        0.81540
H          5.09820       -3.05030        1.92300
