17
1059	1
C          2.23680        0.44450       -1.56750
C          2.96750       -0.18260       -0.38610
C          3.09770        0.81070        0.73730
C          4.30010        1.18820        1.20410
C          4.43980        2.16600        2.31100
C          5.79900        2.56230        2.80340
O          3.44980        2.65820        2.83240
H          2.13470       -0.30340       -2.38200
H          2.80740        1.31640       -1.95330
H          1.22180        0.77820       -1.26240
H          3.96380       -0.53790       -0.73010
H          2.39190       -1.06000       -0.02220
H          2.18960        1.22150        1.17050
H          5.20060        0.76990        0.76290
H          6.60130        2.03950        2.24110
H          5.89430        2.30420        3.87890
H          5.93460        3.65700        2.67860
