16
1043	1
C          0.97600       -0.34290        0.07650
N          2.41190       -0.15180        0.14930
C          3.19770       -0.80990        1.18000
C          3.04370        0.69500       -0.80950
N          4.31450        0.88950       -0.77790
N          4.91800        1.70510       -1.70250
C          6.18590        1.89850       -1.66970
H          0.60530       -1.02070        0.87410
H          0.70720       -0.78490       -0.90630
H          0.46270        0.63570        0.18720
H          2.56720       -1.43310        1.84860
H          3.71210       -0.04800        1.80320
H          3.95680       -1.46970        0.70880
H          2.44180        1.18060       -1.57510
H          6.65170        2.54490       -2.40520
H          6.80090        1.42110       -0.91160
