17
1046	1
C          0.47810       -0.39660        0.58970
N          1.89900       -0.16060        0.72050
C          2.67290       -0.98190        1.63840
N          2.47940        0.84480       -0.03610
C          3.73530        1.14030        0.00190
C          4.24940        2.22990       -0.84570
C          5.54250        2.56230       -0.83160
H          0.30010       -1.43540        0.23950
H          0.02910        0.30630       -0.14460
H         -0.01970       -0.24850        1.57130
H          2.02730       -1.72890        2.14920
H          3.13880       -0.34220        2.41730
H          3.45970       -1.53290        1.08130
H          4.42410        0.60310        0.64590
H          3.56670        2.77280       -1.49330
H          6.24770        2.03690       -0.19420
H          5.90150        3.36810       -1.46360
