17
1021	1
C          3.92980        0.81790        0.78310
C          2.78460        0.15260        0.00480
O          2.19870        1.08300       -0.86850
C          3.14560       -1.10910       -0.76270
C          4.38630       -1.62490       -0.83220
C          4.64270       -2.85830       -1.60530
C          5.87030       -3.37820       -1.68120
H          3.54340        1.70340        1.33110
H          4.73160        1.15630        0.09260
H          4.35470        0.11000        1.52630
H          2.01570       -0.13980        0.75160
H          2.88170        1.32470       -1.54860
H          2.33770       -1.61510       -1.28530
H          5.21750       -1.14690       -0.32530
H          3.82550       -3.35460       -2.12190
H          6.70900       -2.90730       -1.17680
H          6.04030       -4.28450       -2.25330
