17
1062	1
C          1.99870        0.10480        1.53070
C          2.92610        0.15590        0.32220
C          3.19080       -1.23350       -0.19550
C          4.43990       -1.73190       -0.24620
C          4.77760       -3.09910       -0.74720
N          3.78330       -3.99970       -1.22070
N          6.00670       -3.47900       -0.75240
H          1.79980        1.13600        1.89160
H          2.47020       -0.47590        2.35240
H          1.03130       -0.36860        1.25730
H          3.86860        0.66700        0.61800
H          2.44650        0.75170       -0.48330
H          2.33860       -1.81170       -0.52510
H          5.26080       -1.10760        0.09750
H          2.78630       -3.75530       -1.24180
H          4.05960       -4.93370       -1.55750
H          6.76530       -2.86500       -0.41990
