17
1049	1
C          0.72730        0.00460       -0.23150
C          2.25060       -0.03650       -0.11470
C          2.89670        0.81750       -1.20510
C          2.68180        0.44420        1.24830
C          3.35260       -0.31360        2.12780
C          3.73350        0.19110        3.39940
C          4.05730        0.61390        4.47510
H          0.40430       -0.36650       -1.21020
H          0.34110        1.02360       -0.11440
H          0.25820       -0.62320        0.53420
H          2.57340       -1.07510       -0.26270
H          2.59470        1.86810       -1.12650
H          2.60840        0.45870       -2.19900
H          3.98970        0.77570       -1.13980
H          2.42240        1.46880        1.51220
H          3.62290       -1.33800        1.88990
H          4.34380        0.99040        5.42920
