12
1158	1
C          0.99650       -0.05570       -0.00650
C          2.51930       -0.07520       -0.04260
F          2.99700       -0.79860        1.03340
C          2.99550       -0.70130       -1.27590
C          3.40370       -1.21400       -2.28520
C          3.89500       -1.83330       -3.48200
O          3.71270       -3.02390       -3.67250
H          0.65950        0.41630        0.93960
H          0.59700       -1.09170       -0.04830
H          0.58820        0.52570       -0.86170
H          2.91290        0.96220        0.01330
H          4.38980       -1.23050       -4.23370
