10
1149	1
F          0.85790        0.17700       -0.00990
C          2.23540        0.07980        0.03270
C          2.72700       -0.44980       -1.23950
C          3.13170       -0.88660       -2.28780
C          3.62240       -1.41680       -3.56020
F          4.55480       -2.40720       -3.31800
F          2.56610       -1.94470       -4.27740
H          2.53260       -0.60140        0.85650
H          2.67160        1.08460        0.20860
H          4.09400       -0.59990       -4.14420
