15
1106	1
N          4.49400       -1.29490        0.52540
C          3.26950       -0.63420        0.21460
N          2.16930       -1.07400        0.71390
C          3.21090        0.55870       -0.67500
C          4.28320        1.11940       -1.26090
C          4.12490        2.30520       -2.13000
C          5.18140        2.87200       -2.71800
H          4.49260       -2.11790        1.14550
H          5.39600       -0.97930        0.14990
H          2.15230       -1.89590        1.33560
H          2.23180        0.99680       -0.85560
H          5.27820        0.72120       -1.11270
H          3.13760        2.72740       -2.29740
H          6.18200        2.47560       -2.57190
H          5.04620        3.74190       -3.35250
