13
1126	1
N          1.04580       -0.33270        0.21710
C          2.40040       -0.02950        0.16710
N          3.01500        0.17450        1.26550
C          3.08680        0.02350       -1.13510
C          4.41450        0.17870       -1.20300
C          5.08820        0.23750       -2.45780
C          5.66410        0.28800       -3.51070
H          0.69230       -0.67640        1.10370
H          0.64710       -0.77980       -0.59380
H          2.39510        0.13530        2.07670
H          2.48060       -0.06130       -2.03370
H          5.01080        0.26490       -0.30120
H          6.17620        0.33300       -4.43810
