12
1174	1
C          1.07080       -0.01220        0.05820
C          2.56930       -0.04930        0.09940
O          3.21320       -0.75910        0.86060
C          3.26220        0.82580       -0.82080
C          3.85730        1.53540       -1.56830
C          4.57930        2.39640       -2.47530
F          4.10670        2.18670       -3.73350
H          0.66910       -0.71300        0.79570
H          0.71700       -0.30570       -0.93360
H          0.71650        0.99320        0.30090
H          5.65100        2.18070       -2.47810
H          4.43450        3.45320       -2.23590
