14
1093	1
C          2.94300        1.00270        0.87510
N          3.76470        0.72330       -0.27390
N          3.99800       -0.58040       -0.64710
C          4.72890       -0.86470       -1.66910
C          4.97680       -2.26850       -2.06650
F          5.75580       -2.51200       -3.15310
C          4.45940       -3.30280       -1.39160
H          2.86350        2.09990        1.02730
H          3.39560        0.54370        1.77910
H          1.92660        0.58430        0.71880
H          4.17290        1.50600       -0.80930
H          5.17780       -0.07000       -2.25920
H          3.83210       -3.15170       -0.51850
H          4.66530       -4.31780       -1.71580
