14
1115	1
F          3.74390        1.34560        0.76730
C          2.94750        0.27790        0.48840
C          1.86940        0.05380        1.24450
C          3.27500       -0.62240       -0.64030
C          4.35330       -0.41110       -1.40850
C          4.66830       -1.31790       -2.53200
C          5.74090       -1.11180       -3.29990
H          1.63690        0.71890        2.07000
H          1.21410       -0.78970        1.04760
H          2.62590       -1.47050       -0.84710
H          5.00710        0.43430       -1.20840
H          4.02220       -2.16610       -2.74170
H          6.40660       -0.27340       -3.11670
H          5.95730       -1.78770       -4.12080
