12
1110	2
N          0.96470        0.11820       -0.19070
C          2.31080       -0.00640       -0.13320
O          2.89970       -0.61290       -1.01680
C          3.06340        0.59100        0.99750
C          4.40140        0.48970        1.09380
C          5.15330        1.08380        2.21910
O          4.58190        1.69380        3.10980
H          0.43620       -0.29470       -0.97360
H          0.45180        0.62570        0.54520
H          2.50680        1.12330        1.76410
H          4.96360       -0.04100        0.33110
H          6.23200        0.97550        2.25360
