16
1094	1
C          3.46560        1.75570        0.60950
O          4.32280        0.69080        0.47840
N          4.23230       -0.34280        1.28950
C          5.03400       -1.33890        1.16630
C          4.93390       -2.50290        2.07790
C          3.88520       -2.52530        3.16130
C          5.78010       -3.53360        1.93330
H          3.70510        2.51540       -0.16260
H          3.58000        2.21300        1.61520
H          2.41670        1.41730        0.47130
H          5.79250       -1.32750        0.38630
H          2.87640       -2.45400        2.70320
H          4.03630       -1.66170        3.84240
H          3.92790       -3.45680        3.76580
H          6.53820       -3.52510        1.15540
H          5.72520       -4.39690        2.58960
