12
1181	2
N          1.14290       -0.03010        0.03860
C          2.48800       -0.03970       -0.00060
O          3.09790        0.21580       -1.04080
C          3.19500       -0.31300        1.20340
C          3.79050       -0.54240        2.21390
C          4.51580       -0.86030        3.43420
O          5.64080       -0.02520        3.54030
H          0.60780        0.17840       -0.79560
H          0.63730       -0.22500        0.91780
H          4.85150       -1.90410        3.44180
H          3.87430       -0.70430        4.31060
H          6.15300       -0.11340        2.70230
