11
1122	1
O          3.24040        0.39050       -1.37070
C          2.39000       -0.04840       -0.41780
O          1.22370       -0.27910       -0.69790
C          2.86340       -0.25030        0.96050
N          4.08780       -0.01060        1.26550
N          4.53510       -0.19730        2.54990
C          5.75820        0.04250        2.85400
H          2.94360        0.52800       -2.28150
H          2.16890       -0.60410        1.71900
H          6.10010       -0.10860        3.87180
H          6.45820        0.39630        2.10190
