12
1184	1
N          0.98050        0.04050        0.07030
C          2.43540        0.03400        0.08740
C          2.91670       -1.32730        0.07330
C          3.31340       -2.44930        0.06160
C          3.78700       -3.80390        0.05370
O          4.28740       -4.20520       -1.12860
O          3.75370       -4.53410        1.02990
H          0.64900        1.00070        0.12890
H          0.63740       -0.43330        0.90470
H          2.79220        0.56140        0.97820
H          2.80550        0.57980       -0.78640
H          4.55510       -5.13080       -0.96060
