9
1167	1
F          1.00530        0.02850        0.05820
C          2.38690        0.03260        0.05830
F          2.84730       -0.01750        1.35990
C          2.87850       -1.13200       -0.67860
C          3.28340       -2.09170       -1.28550
C          3.75710       -3.21610       -1.99560
C          4.16130       -4.17640       -2.60150
H          2.75370        0.96000       -0.42800
H          4.51600       -5.01980       -3.13340
