15
1172	1
C          0.97900        0.02630        0.06060
C          2.49900        0.06940        0.06890
C          2.98030        1.40660        0.32460
C          3.37710        2.50870        0.53530
C          3.83760        3.85340        0.80590
C          5.14840        4.25860        0.19950
O          3.16070        4.59870        1.50300
H          0.62650       -0.99140       -0.13400
H          0.56890        0.68280       -0.71490
H          0.56890        0.35040        1.02370
H          2.87380       -0.29000       -0.89600
H          2.87380       -0.62060        0.83300
H          5.58500        3.44390       -0.38490
H          5.84440        4.52920        0.99790
H          4.98860        5.11610       -0.45960
