13
1177	1
N          0.99220        0.12910       -0.12040
C          2.39920        0.09960       -0.08700
N          3.05870        0.95960        0.58580
C          3.09410       -0.91070       -0.78880
C          3.69290       -1.75790       -1.37660
C          4.41770       -2.79470       -2.09630
O          4.77170       -3.81790       -1.19100
H          0.47500        0.75620        0.50680
H          0.50190       -0.66710       -0.54010
H          2.56100        1.69990        1.08660
H          5.37800       -2.38610       -2.44580
H          3.76690       -3.25250       -2.85480
H          5.26470       -3.41550       -0.42480
