13
1119	1
C          3.38840        0.83640       -1.09590
C          2.46370        0.13660       -0.14270
O          1.28460        0.45180       -0.10420
C          2.95770       -0.92920        0.75100
N          4.19380       -1.27960        0.73000
N          4.65120       -2.27100        1.56200
C          5.88560       -2.62030        1.54000
H          2.83990        1.60380       -1.68290
H          3.83000        0.09910       -1.79870
H          4.20210        1.33600       -0.52950
H          2.26340       -1.41780        1.43090
H          6.23560       -3.40470        2.20180
H          6.58690       -2.13830        0.86430
