13
1269	1
C          0.79990        0.06830       -0.10580
C          2.29240       -0.02350       -0.22720
C          3.07940        1.04330       -0.02670
C          4.54910        0.92980       -0.15170
C          5.35210        1.98190        0.04430
F          4.84310        3.20120        0.36740
F          6.69690        1.83550       -0.08020
H          0.45360       -0.63290        0.68150
H          0.33650       -0.21670       -1.07310
H          0.46450        1.09390        0.15980
H          2.73200       -0.98360       -0.48430
H          2.63480        2.00140        0.23020
H          4.99200       -0.02900       -0.40870
