10
1201	2
N          1.01450       -0.02340       -0.07460
C          2.36410        0.00750       -0.07540
O          2.96870        0.57190        0.82270
C          3.08950       -0.60990       -1.14900
C          3.67700       -1.13580       -2.05640
C          4.39150       -1.75260       -3.13410
O          3.90370       -2.69540       -3.73460
H          0.48080        0.42590        0.68280
H          0.50680       -0.47510       -0.85030
H          5.36690       -1.37360       -3.40980
