9
1213	1
O          0.93360       -0.10660        0.12850
C          2.25330       -0.05260       -0.04870
O          2.78630       -0.84660       -0.81050
C          3.03250        0.86400        0.74700
C          3.61410        1.66320        1.45250
C          4.32170        2.59870        2.27660
C          4.91860        3.39460        2.97790
H          0.47240       -0.77390       -0.38520
H          5.50520        4.06710        3.57100
