17
1281	1
C          0.88790        0.94860        0.05570
C          2.37250        0.77650        0.08210
N          3.09330        1.22200       -0.88280
N          4.45890        1.06600       -0.86280
C          5.20370        1.50490       -1.82080
C          4.60950        2.21220       -3.01230
C          6.68840        1.30680       -1.74630
H          0.40130       -0.04830        0.08470
H          0.56430        1.48100       -0.86450
H          0.56970        1.53560        0.94200
H          2.83480        0.27060        0.92600
H          3.90130        1.53660       -3.53640
H          5.40260        2.51520       -3.72850
H          4.06990        3.12340       -2.67850
H          6.97280        0.77270       -0.81420
H          7.19710        2.29340       -1.75990
H          7.02860        0.70820       -2.61700
