14
1229	1
C          1.33630       -0.30610        0.05570
N          2.79860       -0.33540        0.00700
C          3.32120        0.84040       -0.69560
C          4.82650        0.82070       -0.65810
C          5.57510        0.81340       -1.76900
F          5.00350        0.82590       -3.00280
F          6.92960        0.79480       -1.66670
H          0.96840       -1.20380        0.59580
H          0.90570       -0.30980       -0.96990
H          0.98500        0.59360        0.60550
H          3.09370       -1.19960       -0.50590
H          2.98360        1.76700       -0.18240
H          2.93680        0.86120       -1.74030
H          5.32010        0.81310        0.30950
