13
1268	1
C          0.89100       -0.04550        0.03050
C          2.38550       -0.18230        0.01230
F          2.94430       -1.29050        0.57050
C          3.16200        0.76420       -0.54120
C          4.63570        0.63580       -0.56270
C          5.39740        1.58340       -1.11580
F          6.74900        1.44790       -1.12610
H          0.53600       -0.05240        1.08190
H          0.43870       -0.90310       -0.50940
H          0.54960        0.89570       -0.45180
H          2.70360        1.64520       -0.98420
H          5.11320       -0.23670       -0.12540
H          4.94970        2.46720       -1.56100
