14
1242	1
C          0.52950       -0.39490        0.35910
C          1.86980       -0.01600       -0.19980
F          1.92530        0.50560       -1.45530
C          2.99360       -0.18550        0.51980
C          4.35270        0.18320       -0.01130
C          4.97180        1.22090        0.87260
O          6.02080        0.99150        1.45320
H         -0.12210        0.50300        0.38660
H          0.60510       -0.80860        1.38770
H          0.06330       -1.15990       -0.29590
H          2.93360       -0.60400        1.52140
H          4.30100        0.58930       -1.04350
H          4.98440       -0.73100       -0.03170
H          4.48820        2.18470        0.99710
