11
1279	1
N          0.97170       -0.01640       -0.03550
N          2.34650        0.00130       -0.05980
C          2.99370        0.99180       -0.56420
C          4.46840        0.97340       -0.57160
C          5.18080        1.98220       -1.08590
F          4.56700        3.06990       -1.62490
F          6.53800        1.92430       -1.07210
H          0.48000       -0.82260        0.37460
H          0.42160        0.76600       -0.42200
H          2.45730        1.83990       -0.98380
H          4.98920        0.11880       -0.14860
