20
1345	1
C          1.27630        0.05570       -0.16180
C          2.79730        0.05020       -0.05930
C          3.24280        0.52590        1.33380
C          4.63120        1.19790        1.43260
C          3.34770        2.01700        1.60360
C          3.13620        3.10140        0.54060
N          3.11160        2.43480        2.98830
H          0.96780       -0.32400       -1.15850
H          0.88480        1.08730       -0.03700
H          0.83480       -0.59790        0.62060
H          3.21950        0.66130       -0.88140
H          3.16290       -0.98870       -0.20250
H          2.91870       -0.05000        2.22840
H          5.10900        1.16930        0.42990
H          5.12620        0.73220        2.31140
H          3.45460        2.79150       -0.47350
H          3.72910        3.99890        0.81490
H          2.06320        3.38180        0.50970
H          3.36900        1.69140        3.67830
H          2.09130        2.63300        3.09870
