17
1364	1
C          2.93710        0.85230        0.82880
N          2.16390        0.13150       -0.17900
C          2.87920        0.16240       -1.46340
C          1.93390       -0.22970       -2.61970
C          2.49900        1.18070       -2.52730
C          1.56350        2.35070       -2.20180
F          3.58280        1.45430       -3.34390
H          2.42040        0.78310        1.80930
H          3.03540        1.92520        0.55360
H          3.94710        0.40090        0.93830
H          1.19980        0.52880       -0.21550
H          3.78070       -0.48110       -1.55280
H          0.83640       -0.17420       -2.45700
H          2.35320       -0.66540       -3.55110
H          0.67310        2.06460       -1.60990
H          1.19470        2.78390       -3.15460
H          2.12980        3.13310       -1.65540
