17
1322	1
C          0.99540        0.15590        0.21820
C          2.46650        0.01990       -0.20440
C          2.62760        0.01120       -1.73370
O          3.24550        1.02930        0.38900
C          3.91500        0.07850        1.18820
C          3.19370       -1.09430        0.54330
O          4.05140       -1.83880       -0.28110
H          0.55870        1.08230       -0.21160
H          0.90580        0.21010        1.32470
H          0.41280       -0.71780       -0.14370
H          2.18790        0.93470       -2.16660
H          2.10980       -0.87050       -2.16760
H          3.70040       -0.02160       -2.02060
H          3.62320        0.21580        2.25310
H          5.01080        0.09080        0.99670
H          2.56580       -1.70740        1.22850
H          4.67770       -2.30800        0.32890
