19
1307	1
C          1.05150        0.04540       -0.00590
C          2.58290       -0.05660       -0.00980
N          3.28690        1.00530        0.72430
C          4.19190       -0.03330        1.24510
C          3.25520       -1.15950        0.81230
C          2.44290       -1.71260        1.99660
N          3.89150       -2.22030        0.02590
H          0.74280        0.95350       -0.56470
H          0.64250        0.11800        1.02240
H          0.61900       -0.84630       -0.50570
H          2.96730       -0.05250       -1.05720
H          2.68870        1.31410        1.52800
H          4.40490        0.04070        2.33570
H          5.12400       -0.00550        0.63480
H          2.00720       -0.89990        2.61610
H          3.10420       -2.32260        2.64760
H          1.62140       -2.35970        1.62320
H          4.47570       -1.81820       -0.74310
H          3.14550       -2.80700       -0.41310
