19
1294	1
C          1.01490       -0.01420        0.01330
C          2.53900       -0.02670        0.12870
C          3.19980        1.01050        1.04450
C          4.26220       -0.04980        1.37960
C          3.24680       -1.12610        0.94770
C          2.44490       -1.66940        2.14740
O          3.77320       -2.19130        0.19210
H          0.69170        0.91280       -0.50470
H          0.53240       -0.04340        1.01210
H          0.68040       -0.89240       -0.57730
H          3.02070        0.05080       -0.87530
H          2.56520        1.17410        1.94480
H          3.53000        1.97560        0.60520
H          4.68930       -0.07540        2.40500
H          5.06560        0.03760        0.61090
H          2.02620       -0.86490        2.78660
H          3.10660       -2.29880        2.77930
H          1.60740       -2.30050        1.78230
H          4.34920       -1.81700       -0.52370
