12
1360	1
F          1.09300        0.13170       -0.20480
C          2.46580        0.01720       -0.09640
C          2.88890        0.37530        1.33050
C          4.39060        0.61400        1.43330
C          3.40290        1.76880        1.62410
F          3.18060        2.64990        0.57880
F          3.06060        2.15030        2.90920
H          2.94070        0.66840       -0.86130
H          2.75480       -1.03350       -0.30820
H          2.56140       -0.26540        2.17720
H          4.98540        0.89430        0.53750
H          4.88820        0.49060        2.41840
