16
1297	1
C          0.92240        0.02910       -0.03130
C          2.45220        0.06340       -0.02290
O          2.98020        0.03630       -1.32870
C          3.14390        1.14150        0.82690
C          4.20610        0.09490        1.17300
C          3.16330       -0.97810        0.84980
F          3.64150       -2.10160        0.19750
H          0.52770        0.91720       -0.56810
H          0.52430        0.03450        1.00550
H          0.57060       -0.89050       -0.54450
H          2.78910        0.92120       -1.73620
H          2.53870        1.33020        1.74560
H          3.46300        2.09310        0.35100
H          4.66440        0.11050        2.18450
H          4.98050        0.10230        0.36980
H          2.57010       -1.20580        1.76640
