18
1367	1
C          2.31660        1.11160       -0.13500
O          2.49940       -0.26930        0.05930
C          2.88310       -0.46350        1.39820
C          3.48470       -1.88790        1.53020
C          4.37330       -0.67230        1.64330
C          5.36470       -0.38230        0.51110
N          4.79610       -0.29530        2.99530
H          2.04230        1.28090       -1.19620
H          3.25490        1.68030        0.05220
H          1.47740        1.49680        0.48670
H          2.06600       -0.47000        2.15240
H          3.65530       -2.43490        0.57730
H          3.43370       -2.39900        2.51560
H          4.96990       -0.69170       -0.47980
H          6.30720       -0.93700        0.70000
H          5.58920        0.70420        0.48090
H          4.05880       -0.50150        3.70900
H          4.96940        0.73560        3.01100
