18
1383	1
C          0.95370        0.03220       -0.10600
C          2.46270        0.01070        0.14260
F          3.12280        0.09510       -1.07670
C          2.94260        1.11960        1.08140
C          4.38280        0.69410        1.33110
C          4.33080       -0.84090        1.42260
C          2.93670       -1.22400        0.90330
H          0.66950        0.97470       -0.62010
H          0.39380       -0.03320        0.85150
H          0.66410       -0.82590       -0.74880
H          2.37880        1.06760        2.04160
H          2.84970        2.14720        0.66900
H          4.90940        1.20040        2.16720
H          4.93500        0.94780        0.39690
H          4.44210       -1.22680        2.45930
H          5.14790       -1.25020        0.78880
H          2.27700       -1.31210        1.79870
H          2.88820       -2.19390        0.36430
