14
1335	1
C          0.95680       -0.04420        0.08950
C          2.47780        0.03330       -0.06460
N          2.96190       -0.00960       -1.44160
C          3.24750        1.08130        0.85910
O          3.84260        0.02310        1.53300
C          3.22870       -0.87060        0.80240
O          3.32750       -2.08610        0.85680
H          0.48680        0.82800       -0.41100
H          0.66650       -0.03640        1.16220
H          0.57470       -0.97710       -0.37630
H          2.58080        0.81580       -1.95770
H          2.60940       -0.87880       -1.90450
H          2.59250        1.65620        1.55150
H          4.01520        1.68660        0.32700
