18
1353	1
C          2.19730        1.12040       -0.62620
C          2.48170       -0.21790        0.04410
C          3.18910       -1.16420       -0.93800
C          3.08710       -2.64250       -0.53230
C          2.41630       -2.13120       -1.81170
C          0.88620       -2.09060       -1.87610
F          3.09380       -2.41490       -2.98560
H          1.71740        1.80790        0.10190
H          1.51210        0.98000       -1.48900
H          3.14270        1.58240       -0.98270
H          1.53350       -0.63270        0.43930
H          3.15380       -0.05070        0.91270
H          4.21580       -0.91240       -1.28100
H          2.29530       -2.94310        0.18720
H          3.89170       -3.34140       -0.84460
H          0.40430       -1.92710       -0.89310
H          0.52070       -3.06270       -2.26680
H          0.56970       -1.28770       -2.57350
