15
1468	1
C          0.83670        0.07030       -0.04440
C          2.35680       -0.06480        0.09280
O          2.87610        0.09220        1.38400
C          3.28100       -0.75070       -0.91750
N          2.53340       -1.50520       -1.92880
C          3.11900        0.78360       -0.91070
F          4.31020        1.33460       -0.47120
H          0.34580       -0.76810        0.49140
H          0.49370        0.06830       -1.09850
H          0.51150        1.02600        0.41790
H          2.84640       -0.81120        1.79210
H          4.04480       -1.30750       -0.33260
H          1.91330       -0.91070       -2.52230
H          1.97500       -2.25670       -1.46450
H          2.73030        1.08480       -1.90620
