16
1413	1
C          1.01880        0.08280        0.09070
C          2.54760        0.03360        0.03270
F          2.97640        0.12950       -1.28080
C          3.13960       -1.22440        0.69090
C          3.33820       -0.87300        2.17120
C          3.57530        0.59240        2.08470
C          3.13020        1.10160        0.89060
H          0.59340       -0.75740       -0.49780
H          0.65210        1.03800       -0.34210
H          0.65470        0.00160        1.13770
H          4.17600       -1.30460        0.28410
H          2.64100       -2.19190        0.46940
H          4.18930       -1.45080        2.59090
H          2.41910       -1.03100        2.77480
H          3.93870        1.20930        2.89580
H          3.11020        2.15970        0.66460
