11
1436	1
F          0.80780       -0.08620        0.16540
C          2.19000       -0.08680        0.17590
F          2.67490       -0.08650        1.47030
C          2.74520        1.05400       -0.61840
C          3.48890        0.59630       -1.68260
C          3.48830       -0.77280       -1.68190
C          2.74420       -1.22890       -0.61740
H          2.58910        2.10110       -0.39490
H          3.99170        1.22890       -2.40190
H          3.99050       -1.40650       -2.40070
H          2.58720       -2.27570       -0.39290
