16
1425	1
C          0.99420       -0.01140        0.04300
C          2.52980       -0.00580        0.06500
C          3.10080        0.22010       -1.34270
C          3.11540       -1.28590        0.74140
O          3.78470       -0.78870        1.84270
N          3.71000        0.51350        1.94670
C          3.03630        1.02930        1.00830
H          0.62350       -0.83720       -0.60130
H          0.60770        0.95110       -0.35630
H          0.58630       -0.15460        1.06720
H          2.78220       -0.59990       -2.02120
H          4.21200        0.24390       -1.31760
H          2.73930        1.18540       -1.75840
H          3.83560       -1.82240        0.08650
H          2.32390       -1.98900        1.08010
H          2.86520        2.09480        0.92610
