20
1395	1
C          0.97110       -0.11020        0.04950
C          2.50980       -0.06570       -0.03330
C          2.91860        0.09410       -1.51300
C          3.06970        1.08160        0.82690
C          4.45880        0.57730        1.13770
C          4.13680       -0.86780        1.47580
N          3.13650       -1.29890        0.48850
H          0.53260        0.83550       -0.33570
H          0.64060       -0.24740        1.10140
H          0.57430       -0.95720       -0.55040
H          2.50510        1.03670       -1.93150
H          2.52680       -0.75680       -2.11100
H          4.01900        0.10950       -1.64650
H          2.52190        1.11730        1.79810
H          3.01110        2.09130        0.36660
H          4.98190        1.12790        1.94820
H          5.08940        0.61300        0.22450
H          3.67360       -0.89540        2.49050
H          5.03390       -1.52140        1.48120
H          2.45590       -1.95040        0.94660
