15
1482	1
C          1.06760        0.10240       -0.02060
C          2.59770        0.01820        0.02530
C          3.37550       -0.74070       -1.04900
C          2.60680       -1.48160       -2.14990
C          3.34010        0.79060       -1.06600
F          2.59800        1.35040       -2.09330
F          4.54420        1.36700       -0.70490
H          0.64080       -0.79230        0.47790
H          0.64500        0.17870       -1.04050
H          0.74540        1.00420        0.53990
H          3.11160        0.03550        1.01050
H          4.28900       -1.20540       -0.61940
H          1.74520       -0.92200       -2.56140
H          2.24790       -2.45330       -1.75190
H          3.30170       -1.68180       -2.99130
