17
1405	2
C          0.93300        0.04460        0.11260
C          2.46580        0.06010        0.02400
C          3.09330        0.15300        1.42230
C          3.01590       -1.16920       -0.78180
N          3.67650       -0.56710       -1.92290
C          3.59480        0.69850       -1.89270
N          2.90090        1.16800       -0.78570
H          0.58910       -0.84180        0.68750
H          0.48600        0.00340       -0.90400
H          0.56520        0.96280        0.61890
H          2.80760       -0.73060        2.03240
H          2.74720        1.07220        1.94160
H          4.20160        0.18980        1.34850
H          2.20490       -1.83990       -1.13990
H          3.75590       -1.76130       -0.20080
H          4.02300        1.33770       -2.65290
H          2.72660        2.16300       -0.58060
