14
1438	1
C          0.86740       -0.07260        0.10280
C          2.39710       -0.06920        0.11890
N          2.90940       -0.07460        1.49050
C          2.98270        1.05630       -0.70090
N          3.67330        0.60140       -1.67080
N          3.66950       -0.75970       -1.66490
C          2.97630       -1.20280       -0.69120
H          0.47730        0.83120        0.61760
H          0.48540       -0.97470        0.62670
H          0.48430       -0.07810       -0.94080
H          2.59440        0.79290        1.98370
H          3.95630       -0.07930        1.48720
H          2.85150        2.11390       -0.51400
H          2.83900       -2.25800       -0.49560
