19
1462	1
C          1.06070        0.17370        0.04900
C          2.58370       -0.01190        0.08060
C          3.31010       -0.76890       -1.04400
C          2.48280       -1.40750       -2.16840
C          3.44060        0.75790       -0.93690
C          2.85540        1.66500       -2.02990
O          4.69460        1.13930       -0.44330
H          0.58400       -0.72110        0.49970
H          0.62080        0.32630       -0.95090
H          0.79970        1.05680        0.66790
H          3.07220       -0.14630        1.07010
H          4.19240       -1.33000       -0.66590
H          1.61020       -0.82480       -2.50830
H          2.11820       -2.39710       -1.82370
H          3.14300       -1.56580       -3.04590
H          1.87750        1.34410       -2.42760
H          3.56920        1.71300       -2.87840
H          2.73080        2.68760       -1.61740
H          4.51420        1.82760        0.24790
