14
1479	1
C          1.05240        0.09780        0.17940
C          2.56270       -0.13570        0.10950
F          3.25870       -0.18730        1.30690
C          3.21960       -0.81670       -1.08110
O          2.24120       -1.29360       -1.96050
C          3.26560        0.72090       -0.92060
O          4.58070        1.08240       -0.61610
H          0.57330       -0.76470        0.68700
H          0.59590        0.22170       -0.82580
H          0.85120        1.01640        0.76910
H          3.90090       -1.56980       -0.63020
H          2.63530       -1.19170       -2.86430
H          2.82320        1.13880       -1.85070
H          4.49980        1.86510       -0.01300
