13
1428	1
C          0.99190        0.09710       -0.08610
C          2.51660        0.10770        0.02800
F          3.09580        0.33640       -1.20870
C          3.09030       -1.17770        0.68950
O          3.74620       -0.69920        1.80670
N          3.65610        0.59930        1.93760
C          2.99170        1.12660        0.99920
H          0.67190       -0.71620       -0.77120
H          0.63470        1.06630       -0.49480
H          0.52280       -0.06620        0.90840
H          3.81150       -1.69310        0.01990
H          2.29390       -1.88330        1.01110
H          2.81850        2.19240        0.92910
