20
1502	1
C          1.06820        0.50530        0.06390
C          2.49090       -0.01850        0.30990
C          2.68580       -0.35690        1.80310
O          1.86810       -1.42710        2.19930
C          2.77080       -1.22360       -0.62300
C          4.20010       -1.77980       -0.52870
N          5.18680       -0.75370       -0.85150
H          0.87060        1.39480        0.69970
H          0.31020       -0.27410        0.29240
H          0.94950        0.80980       -0.99800
H          3.19290        0.80500        0.05230
H          2.49080        0.54330        2.43180
H          3.74150       -0.62780        2.00640
H          1.01450       -1.03710        2.52250
H          2.59730       -0.90750       -1.67570
H          2.05670       -2.04530       -0.39620
H          4.30330       -2.62960       -1.23920
H          4.39480       -2.17540        0.48970
H          5.05450       -0.45060       -1.84390
H          6.14070       -1.17460       -0.77230
