15
1552	1
O          2.61330        0.73690        1.34460
C          2.23320        0.05840        0.17920
C          2.93250        0.67090       -1.04090
F          2.53610        1.99230       -1.16150
C          4.47080        0.62620       -0.96390
C          5.04720       -0.79130       -0.91960
F          4.66140       -1.50500       -2.04030
H          2.11380        0.30900        2.08760
H          1.13390        0.15440        0.03410
H          2.48570       -1.02020        0.26520
H          2.59780        0.12990       -1.95250
H          4.81900        1.18940       -0.07110
H          4.87730        1.13230       -1.86640
H          4.72030       -1.32970       -0.00710
H          6.15590       -0.73340       -0.89870
