18
1507	1
C          1.43210        1.04260       -0.47470
C          2.40930        0.21980        0.37680
C          2.51300        0.82940        1.78670
F          1.29570        0.76900        2.44340
C          1.96070       -1.26240        0.39700
C          2.92150       -2.20120        1.13640
O          4.19080       -2.15220        0.54600
H          1.76700        2.10040       -0.53140
H          0.40870        1.01440       -0.04260
H          1.39140        0.64060       -1.50970
H          3.40970        0.28620       -0.10510
H          2.83090        1.89160        1.71660
H          3.27760        0.30300        2.39260
H          1.88230       -1.62400       -0.65230
H          0.95340       -1.34400        0.86140
H          2.51750       -3.23570        1.06340
H          2.98580       -1.92220        2.20960
H          4.75450       -2.79370        1.05140
