21
1558	1
C          1.40730        0.03670       -2.97560
N          2.84050        0.20040       -2.72940
C          3.27120       -0.64030       -1.60540
C          4.77930       -0.47040       -1.32850
C          5.17500       -1.31680       -0.10870
C          5.61820       -0.86480       -2.56330
N          7.04530       -0.68820       -2.30660
H          1.10730        0.66690       -3.83890
H          0.81630        0.35060       -2.08690
H          1.17410       -1.02140       -3.22300
H          3.01930        1.20530       -2.49590
H          3.06000       -1.70940       -1.83460
H          2.70220       -0.35700       -0.69040
H          4.97520        0.59820       -1.08700
H          4.99580       -2.39570       -0.30550
H          4.58130       -1.01140        0.77910
H          6.24800       -1.17210        0.13730
H          5.32950       -0.23670       -3.43530
H          5.42470       -1.92890       -2.82340
H          7.23950        0.32200       -2.11860
H          7.57570       -0.96440       -3.16410
