20
1559	1
C          2.39500        2.03800       -3.68440
N          3.59730        1.87470       -2.86710
C          3.62260        0.55140       -2.23290
C          4.90740        0.34980       -1.39880
C          4.83710       -0.99990       -0.67100
C          6.18430        0.39920       -2.26300
O          6.35420        1.66360       -2.84830
H          2.40780        3.04140       -4.15980
H          1.47830        1.95370       -3.06000
H          2.36900        1.27490       -4.49220
H          3.59230        2.61110       -2.12250
H          3.56500       -0.24440       -3.00990
H          2.73810        0.45230       -1.56250
H          4.96660        1.14760       -0.62520
H          4.77730       -1.83790       -1.39890
H          3.94400       -1.03610       -0.01130
H          5.73720       -1.14290       -0.03560
H          6.16300       -0.40670       -3.03520
H          7.07430        0.20480       -1.62720
H          6.13190        1.57520       -3.81180
