19
1581	1
C          0.84750       -0.07570        1.06680
C          2.06600        0.73770        0.63240
C          2.62300        0.25960       -0.71890
O          1.63830        0.41210       -1.71030
C          3.87160        1.06320       -1.10360
O          4.37710        0.57730       -2.32910
C          5.52020        1.31880       -2.68900
H          0.48550        0.29400        2.04930
H          1.11660       -1.14870        1.16820
H          0.02480        0.02600        0.32780
H          2.85080        0.63300        1.41340
H          1.77850        1.80980        0.56320
H          2.90300       -0.81590       -0.61040
H          1.81230       -0.27810       -2.40240
H          4.62910        0.93490       -0.29590
H          3.58350        2.13650       -1.19470
H          5.90360        0.92270       -3.65160
H          6.33430        1.19780       -1.94020
H          5.27250        2.39090       -2.85410
