17
1508	1
C          1.11780       -0.57370       -0.09890
C          2.45240        0.16500       -0.27260
C          2.80120        0.26680       -1.76870
F          1.85890        1.02120       -2.44680
C          2.37520        1.54760        0.41870
C          3.69360        2.32630        0.39940
F          4.69310        1.59950        1.02130
H          1.17530       -1.58520       -0.55490
H          0.28810       -0.01170       -0.57920
H          0.88440       -0.69760        0.98020
H          3.23890       -0.44230        0.22770
H          2.83890       -0.74860       -2.21780
H          3.80150        0.72180       -1.91410
H          2.09520        1.39670        1.48460
H          1.58460        2.16680       -0.05890
H          3.55870        3.28440        0.94420
H          4.00330        2.57080       -0.63660
