19
1527	1
C          1.12040        0.14180       -0.16930
C          2.62860       -0.04970       -0.01890
C          3.08830        0.12950        1.44180
O          2.43770       -0.79280        2.28130
C          4.62290        0.00150        1.55580
C          5.14830        0.28710        2.96770
O          4.68250       -0.66760        3.88490
H          0.83480        0.01720       -1.23510
H          0.82660        1.16100        0.16060
H          0.56840       -0.61040        0.43310
H          3.14100        0.69990       -0.66080
H          2.90260       -1.06510       -0.38000
H          2.80520        1.15510        1.76620
H          2.69920       -1.70430        1.98580
H          5.09140        0.74070        0.86950
H          4.94650       -1.01470        1.24030
H          4.87330        1.32240        3.27920
H          6.25790        0.24190        2.95880
H          3.95850       -0.23980        4.41240
