20
1529	1
C          0.92500        0.14030        0.02550
C          2.44470        0.03950        0.11860
C          3.05870       -0.33050       -1.23890
C          4.59240       -0.42060       -1.16660
O          4.95850       -1.42530       -0.25450
C          5.17690       -0.73920       -2.55190
N          6.63430       -0.79970       -2.49560
H          0.50810        0.41180        1.01830
H          0.49190       -0.83370       -0.28790
H          0.63370        0.92220       -0.70800
H          2.70420       -0.73250        0.87530
H          2.84870        1.01920        0.45560
H          2.77710        0.44920       -1.98160
H          2.64660       -1.30700       -1.57770
H          4.97420        0.57190       -0.82730
H          5.84870       -1.17870        0.10880
H          4.86950        0.04440       -3.28070
H          4.78620       -1.71950       -2.90350
H          7.00680        0.14220       -2.23380
H          6.99400       -1.02910       -3.45020
