20
1517	1
C          0.92440       -0.18260       -0.20590
C          2.43700        0.01780       -0.17040
C          3.15790       -1.27910        0.22830
C          4.69940       -1.14700        0.20660
N          5.17680       -0.15180        1.17120
C          5.34920       -2.50570        0.51320
O          6.74540       -2.41990        0.41090
H          0.43020        0.76720       -0.50030
H          0.55050       -0.48290        0.79610
H          0.65550       -0.96610       -0.94610
H          2.66060        0.82490        0.55790
H          2.77770        0.33700       -1.17920
H          2.86720       -2.07030       -0.49830
H          2.82120       -1.59580        1.24050
H          5.01910       -0.84260       -0.81540
H          4.80590       -0.36260        2.12650
H          4.88430        0.80970        0.88720
H          4.99930       -3.26310       -0.22060
H          5.05320       -2.87470        1.52260
H          7.07700       -2.06990        1.27820
