16
1680	1
C          3.67550       -1.46880        0.23160
O          2.96280       -1.10800        1.39410
C          2.99990        0.29450        1.56990
C          1.90080        0.69000        2.54800
O          4.21990        0.66870        2.09530
N          4.99560        1.52710        1.46440
C          6.12920        1.86300        1.96090
H          3.67070       -2.57500        0.14960
H          4.74090       -1.15430        0.29020
H          3.18170       -1.07170       -0.68260
H          2.78430        0.83410        0.61430
H          2.05550        0.18510        3.52560
H          0.90910        0.39510        2.14360
H          1.90930        1.78970        2.70520
H          6.76040        2.57010        1.43420
H          6.46470        1.44540        2.90590
