19
1618	1
C          0.93380       -0.50660       -0.02520
C          2.30130        0.09970       -0.37440
C          2.39920        0.36980       -1.89170
O          2.21510       -0.81040       -2.62700
C          2.51700        1.39220        0.44070
C          3.89640        1.96190        0.22880
C          4.08000        3.19340       -0.25660
H          0.77960       -1.46240       -0.56930
H          0.11330        0.19350       -0.29320
H          0.87670       -0.72330        1.06300
H          3.08690       -0.63520       -0.08850
H          3.38200        0.82000       -2.15800
H          1.61970        1.10030       -2.19790
H          3.05620       -1.33120       -2.54380
H          2.41750        1.16400        1.52390
H          1.73090        2.13420        0.17420
H          4.76190        1.35510        0.47820
H          3.23540        3.82450       -0.51570
H          5.08590        3.57510       -0.39760
