14
1636	1
O          0.97410        0.12060       -0.09560
C          2.37130        0.25590       -0.03590
C          2.80490        1.56100       -0.71600
F          2.42150        1.55070       -2.04510
C          2.83240        0.18840        1.42990
C          2.22120        1.27190        2.27310
O          2.93200        2.07960        2.84970
H          0.75630       -0.25860       -0.98700
H          2.85760       -0.59870       -0.56340
H          3.90970        1.66580       -0.66770
H          2.33960        2.43790       -0.21810
H          3.94220        0.25830        1.46790
H          2.53620       -0.79340        1.85750
H          1.14280        1.33760        2.37470
