19
1592	1
C          0.89020       -0.34450        0.59720
N          2.21180       -0.60100        1.17820
C          2.91850        0.63370        1.57750
C          2.20540        1.35580        2.73660
C          4.38660        0.30740        1.94570
C          4.53880       -0.68600        3.10230
F          5.88140       -0.93520        3.32060
H          0.46650       -1.29820        0.21680
H          0.95920        0.37110       -0.25120
H          0.18590        0.03590        1.36390
H          2.77590       -1.07690        0.43470
H          2.95960        1.33650        0.71370
H          2.08900        0.69030        3.61620
H          1.19940        1.70690        2.43170
H          2.78320        2.25620        3.03530
H          4.91950        1.24830        2.20530
H          4.88770       -0.12430        1.05180
H          4.03630       -1.64530        2.85790
H          4.10630       -0.27760        4.03790
