16
1659	2
C          1.13900        0.40310       -0.23830
C          2.27740       -0.33570        0.47860
C          2.62080        0.32900        1.82450
O          3.72260       -0.30290        2.41900
N          1.97350       -1.75550        0.63530
C          0.93370       -2.24270        1.36740
O          0.16690       -1.49880        1.95830
H          1.42640        1.46140       -0.41600
H          0.20280        0.39630        0.35560
H          0.94220       -0.07380       -1.22190
H          3.17780       -0.24890       -0.17060
H          1.75480        0.34020        2.52300
H          2.88920        1.39310        1.65140
H          3.37080       -1.08920        2.91220
H          2.58740       -2.43490        0.16110
H          0.78170       -3.31540        1.42990
