14
1634	1
O          2.54720        1.28700       -0.43450
C          2.33720        0.08650        0.26230
C          3.01440       -1.07450       -0.50140
O          2.45380       -1.19930       -1.78620
C          4.54000       -0.90640       -0.62670
C          5.20510       -0.91000        0.68460
N          5.73390       -0.91220        1.71400
H          2.07060        1.99570        0.06490
H          1.24580       -0.13210        0.32070
H          2.74540        0.17680        1.29190
H          2.80880       -2.02440        0.04270
H          2.37710       -0.29230       -2.18550
H          4.77850        0.03720       -1.16030
H          4.95130       -1.74670       -1.22940
