17
1678	1
C          2.48120        1.52100       -0.01920
O          2.43480        0.92840       -1.29880
C          2.90930       -0.40280       -1.23770
C          2.45020       -1.11330       -2.51410
O          4.29610       -0.38920       -1.16120
C          5.12100       -1.45490       -0.94610
C          4.68320       -2.67790       -0.61160
H          2.16940        2.58120       -0.11480
H          3.51410        1.52470        0.39450
H          1.76500        1.03060        0.67630
H          2.46650       -0.93930       -0.36490
H          2.86260       -0.59570       -3.40640
H          1.34110       -1.09740       -2.57330
H          2.78130       -2.17060       -2.53760
H          6.19110       -1.29930       -1.03640
H          3.63050       -2.90080       -0.48900
H          5.39940       -3.47680       -0.44880
