22
1589	1
C          2.50700       -4.03520        0.03630
C          3.75880       -3.21680        0.34050
C          3.91510       -2.05660       -0.65850
C          5.18910       -1.20270       -0.44230
C          5.14200       -0.47150        0.91280
N          6.39280       -2.05010       -0.56930
C          7.63730       -1.27630       -0.62220
H          2.41820       -4.86610        0.76750
H          2.56600       -4.46670       -0.98570
H          1.60070       -3.39710        0.11130
H          4.64250       -3.88780        0.28100
H          3.67290       -2.82790        1.37610
H          3.02120       -1.39690       -0.59990
H          3.95160       -2.47930       -1.68690
H          5.18930       -0.43000       -1.24520
H          5.18820       -1.18600        1.75980
H          4.20770        0.12440        0.99010
H          5.98560        0.23990        1.01410
H          6.33270       -2.57630       -1.47310
H          7.84520       -0.78790        0.35090
H          7.60050       -0.51680       -1.43380
H          8.48620       -1.96330       -0.82510
