18
1649	1
C          1.03870        0.28970       -0.03730
N          2.46830        0.37100       -0.35650
C          2.89790       -0.62790       -1.35830
C          2.28270       -0.31140       -2.73880
C          4.44640       -0.61570       -1.43930
C          5.06050       -1.70590       -2.28280
O          4.37770       -2.56170       -2.82340
H          0.81200        0.98000        0.80300
H          0.75630       -0.74060        0.27120
H          0.41780        0.61770       -0.89460
H          2.97700        0.18250        0.53960
H          2.57840       -1.64290       -1.02730
H          2.57700        0.70840       -3.06570
H          1.17710       -0.37410       -2.71240
H          2.61030       -1.03340       -3.51150
H          4.86560       -0.74760       -0.41880
H          4.78170        0.37210       -1.82300
H          6.13980       -1.74640       -2.38550
