21
1595	1
C          1.15420        0.66150        2.30780
C          2.66430        0.86030        2.21530
C          3.10170        1.11290        0.76560
C          4.62410        1.30080        0.65720
C          5.03360        1.49940       -0.80450
O          5.00480        2.44410        1.40610
C          6.19010        2.19730        2.12920
H          0.86660        0.47970        3.36480
H          0.84160       -0.21350        1.69880
H          0.62270        1.56720        1.94530
H          3.17020       -0.05010        2.60430
H          2.94830        1.72540        2.85290
H          2.58820        2.02070        0.37760
H          2.79790        0.24180        0.14340
H          5.09580        0.35520        1.02410
H          4.55500        2.41130       -1.22150
H          4.73020        0.62120       -1.41360
H          6.13570        1.61130       -0.87850
H          6.49420        3.13710        2.63390
H          7.02480        1.90470        1.45440
H          6.01910        1.43590        2.92170
