16
1676	1
C          0.78210        0.04230        0.38150
C          2.27710       -0.27240        0.43310
C          2.59470       -1.11690        1.68050
O          3.97560       -1.34020        1.79710
O          2.62540       -0.93530       -0.72730
N          3.88100       -1.22460       -1.00500
C          4.17950       -1.84740       -2.08550
H          0.47330        0.60420        1.28890
H          0.18800       -0.89480        0.31670
H          0.55900        0.66700       -0.50950
H          2.83020        0.69180        0.48820
H          2.03080       -2.07960        1.65110
H          2.26160       -0.57810        2.59340
H          4.14970       -2.27200        1.50230
H          5.21540       -2.08090       -2.30480
H          3.40330       -2.14450       -2.78490
