18
1760	1
C          1.19950        0.44580       -0.39800
C          2.63920        0.57530        0.08520
N          3.47130       -0.47180       -0.52170
C          4.84910       -0.46830        0.00020
C          5.58430       -1.71740       -0.48990
C          5.59950        0.77480       -0.41530
O          5.77270        1.03230       -1.59650
H          0.57430        1.23350        0.07290
H          0.79240       -0.54970       -0.12020
H          1.15170        0.56420       -1.50130
H          2.64540        0.47140        1.19260
H          3.02070        1.58420       -0.18660
H          3.47930       -0.36220       -1.56400
H          4.82320       -0.51520        1.11200
H          5.64220       -1.73200       -1.59970
H          5.04640       -2.62830       -0.15090
H          6.61510       -1.74360       -0.07550
H          5.98640        1.44870        0.34190
