16
1744	1
C          1.48720       -0.58780       -0.10230
N          2.92480       -0.33990       -0.21630
C          3.36740        0.62710        0.79570
C          4.89190        0.82440        0.72470
O          5.28590        1.29380       -0.54250
C          5.36160        1.74980        1.81910
O          5.96880        2.77650        1.55670
H          1.17840       -1.32330       -0.87470
H          0.91050        0.35070       -0.25700
H          1.24530       -1.01490        0.89480
H          3.11130        0.04790       -1.17070
H          3.11050        0.24350        1.80910
H          2.85290        1.60400        0.64660
H          5.37700       -0.16130        0.89120
H          4.80180        2.14420       -0.71480
H          5.16290        1.49800        2.85590
