14
1748	1
C          1.06200       -0.03680        0.13580
N          2.52640       -0.09420        0.18790
C          3.09640        1.25950        0.12550
C          4.62930        1.21480        0.15290
F          5.09700        0.54770       -0.96700
C          5.17560        2.58160        0.15660
N          5.61080        3.65450        0.15950
H          0.64780       -1.06710        0.15970
H          0.70860        0.45470       -0.80020
H          0.65740        0.51310        1.01300
H          2.85630       -0.64570       -0.63390
H          2.73130        1.85250        0.99410
H          2.77260        1.76430       -0.81170
H          4.99050        0.68010        1.05860
