19
1716	1
N          0.75750       -0.56220       -2.56160
C          2.12550       -0.09030       -2.75200
C          3.05570       -0.72570       -1.70950
C          4.51750       -0.24710       -1.84600
N          5.34280       -0.82520       -0.78480
C          5.09930       -0.64280       -3.18370
C          5.55260        0.26720       -4.05190
H          0.15160       -0.12920       -3.29550
H          0.40770       -0.23720       -1.63070
H          2.15380        1.01830       -2.65900
H          2.45980       -0.36980       -3.77430
H          3.01200       -1.83330       -1.80510
H          2.68620       -0.44910       -0.69750
H          4.53570        0.86080       -1.73080
H          5.30340       -1.87040       -0.82410
H          4.98500       -0.51580        0.14800
H          5.15310       -1.69560       -3.44570
H          5.51710        1.32780       -3.82270
H          5.96620       -0.05220       -5.00300
