15
1747	1
C          0.91720        0.13150        0.03530
N          2.37500        0.02210        0.10000
C          2.98720        0.50350       -1.14410
C          4.51870        0.40830       -1.06060
F          4.89380       -0.91110       -0.87550
C          5.20870        0.93070       -2.29330
O          4.57430        1.36860       -3.24120
H          0.47930       -0.22000        0.99320
H          0.51080       -0.49510       -0.78930
H          0.61240        1.18960       -0.11500
H          2.61650       -0.98710        0.23830
H          2.70650        1.56920       -1.30330
H          2.62520       -0.09910       -2.00850
H          4.86900        1.00470       -0.19100
H          6.29260        0.91740       -2.33940
