15
1772	1
C          0.84180        0.14190        0.01580
N          2.09850       -0.41220       -0.45730
C          3.34680        0.23520       -0.06290
C          4.08100        0.84050       -1.26270
F          3.27780        1.77980       -1.88400
C          2.09220       -1.53430       -1.23700
O          3.13560       -2.04290       -1.61810
H          0.82650        0.13980        1.12640
H         -0.03510       -0.43990       -0.34270
H          0.73460        1.18620       -0.34690
H          3.99990       -0.49530        0.46220
H          3.13880        1.06740        0.64630
H          4.37020        0.06590       -2.00050
H          5.00860        1.33940       -0.91080
H          1.15280       -2.00220       -1.51660
