16
1783	1
C          2.44010        1.59200       -0.33860
C          2.46270        0.19720        0.28480
C          3.20780       -0.81600       -0.59430
N          4.61220       -0.45430       -0.74720
O          5.39160       -0.39270        0.34480
C          5.16740       -0.20410       -1.96560
O          4.50210       -0.25760       -2.98910
H          1.87510        2.28380        0.32090
H          1.94320        1.56170       -1.33160
H          3.47120        1.98560       -0.45950
H          1.41440       -0.14850        0.41500
H          2.93650        0.24770        1.28880
H          2.68310       -0.88660       -1.57190
H          3.15100       -1.81730       -0.11610
H          5.37930        0.55960        0.62220
H          6.22050        0.05040       -2.03370
