16
1764	1
C          0.78510       -0.71540        0.10290
C          2.09530        0.04610       -0.02660
O          3.09730       -0.84730       -0.47180
C          4.37100       -0.22720       -0.48440
C          5.41930       -1.30280       -0.75730
C          4.45920        0.79710       -1.54360
N          4.52390        1.60320       -2.37120
H         -0.02780       -0.02110        0.40310
H          0.88200       -1.51280        0.86980
H          0.51970       -1.17920       -0.87120
H          2.34150        0.47860        0.97000
H          1.93740        0.85550       -0.77320
H          4.61030        0.22720        0.50470
H          5.21770       -1.79910       -1.73210
H          5.38970       -2.07270        0.04250
H          6.43870       -0.86020       -0.78340
