16
1689	1
C          0.94250        0.13640        0.12060
C          2.41490       -0.20610       -0.15870
C          2.62280       -1.72850       -0.20460
F          2.27490       -2.29400        1.00980
C          2.92640        0.48020       -1.44430
C          2.18740        0.08600       -2.65360
C          1.57590       -0.23460       -3.64190
H          0.62200       -0.30440        1.08830
H          0.28120       -0.25950       -0.67990
H          0.80960        1.23720        0.18280
H          3.02430        0.19050        0.68310
H          3.69210       -1.95830       -0.39860
H          2.00930       -2.19150       -1.00660
H          4.00140        0.23990       -1.59090
H          2.84050        1.58190       -1.33100
H          1.03650       -0.50640       -4.51080
