17
1694	1
C          1.95130       -0.79270        0.56440
C          3.30130       -0.12590        0.30140
C          3.19320        0.98110       -0.76990
O          2.29920        1.99050       -0.36840
C          4.56130        1.58010       -1.15720
C          5.25370        2.21450       -0.02500
C          5.82780        2.73660        0.89780
H          2.07190       -1.58870        1.32920
H          1.55860       -1.25410       -0.36700
H          1.21550       -0.05130        0.94090
H          4.01630       -0.90530       -0.04180
H          3.68030        0.30140        1.25470
H          2.78130        0.51900       -1.69430
H          2.66610        2.41440        0.45060
H          4.40980        2.34430       -1.94850
H          5.21670        0.78360       -1.56970
H          6.33590        3.19140        1.70730
