18
1752	1
C          0.99190       -0.74730       -0.12980
O          2.34340       -0.40840       -0.34110
C          3.03400       -1.53030       -0.85050
C          4.53110       -1.18570       -1.00810
N          5.11500       -0.81580        0.28280
C          5.38210       -2.28530       -1.62200
C          4.92820       -3.49760       -1.97200
H          0.45540        0.15950        0.21730
H          0.89060       -1.51430        0.66950
H          0.49930       -1.07270       -1.07320
H          2.63170       -1.78950       -1.85690
H          2.94250       -2.39810       -0.15600
H          4.60390       -0.31120       -1.69140
H          5.01830       -1.60740        0.96060
H          4.62930        0.02380        0.67380
H          6.43400       -2.06930       -1.78590
H          3.89390       -3.79040       -1.83890
H          5.61270       -4.22010       -2.40420
