20
1739	1
C          0.99410       -0.15190       -0.22690
N          2.45740       -0.15940       -0.19400
C          3.00580        0.50880       -1.38230
C          4.54030        0.65050       -1.30300
C          5.25750       -0.70590       -1.27090
C          5.02340        1.42410       -2.50810
C          5.65800        2.59430       -2.38480
H          0.60270       -0.66190        0.67800
H          0.61660       -0.68840       -1.12560
H          0.61040        0.89080       -0.22620
H          2.76070       -1.15990       -0.18400
H          2.57810        1.53510       -1.44740
H          2.71990       -0.04860       -2.30370
H          4.79490        1.20080       -0.36900
H          5.01040       -1.30330       -2.17500
H          4.98170       -1.28590       -0.36730
H          6.35750       -0.55040       -1.23640
H          4.85080        1.01950       -3.50190
H          5.84820        3.02830       -1.40810
H          5.99250        3.12440       -3.27080
