17
1763	1
C          0.94840       -1.65130        1.45460
C          2.43840       -1.77430        1.17540
O          3.08430       -0.59080        1.59790
C          4.48920       -0.71710        1.47310
C          5.08380        0.67120        1.25290
C          5.05990       -1.31780        2.72840
O          5.69730       -2.35760        2.67970
H          0.42610       -2.57390        1.12390
H          0.52840       -0.78280        0.90390
H          0.77570       -1.50980        2.54270
H          2.57210       -1.92080        0.07990
H          2.81580       -2.66000        1.73570
H          4.77910       -1.32870        0.58360
H          4.83860        1.34100        2.10540
H          4.66890        1.11440        0.32270
H          6.18850        0.60620        1.15040
H          4.90350       -0.82810        3.68440
