16
1731	1
O          0.58790        0.11210        0.20210
C          1.93190       -0.01200       -0.17020
C          2.82080        0.46330        0.98400
C          4.32040        0.34100        0.67370
F          4.63860       -0.98800        0.43680
C          4.72010        1.23220       -0.48010
C          5.27580        0.75720       -1.60070
H          0.05690       -0.21440       -0.57020
H          2.12500        0.61210       -1.07090
H          2.15950       -1.07860       -0.39240
H          2.59640       -0.15340        1.88170
H          2.57860        1.52230        1.22380
H          4.89050        0.67310        1.56740
H          4.54830        2.30120       -0.39350
H          5.46620       -0.30260       -1.73400
H          5.54440        1.44000       -2.40010
