11
1820	1
F          0.89110        0.00740        0.07410
C          2.26180       -0.02970       -0.11650
C          2.77110       -1.44100        0.18500
C          2.50170       -1.79470        1.58420
N          2.29560       -2.06490        2.69050
C          2.55440        0.39340       -1.52800
O          3.52070       -0.04540       -2.13360
H          2.72230        0.71590        0.56910
H          3.86450       -1.50780        0.00290
H          2.25160       -2.16970       -0.47830
H          1.95820        1.17910       -1.97550
