18
1882	1
C          1.21410       -0.57090        0.24130
C          2.60190        0.03910        0.04200
C          2.64010        1.04880       -1.12180
C          1.71880        2.26040       -0.95020
N          1.83850        3.15030       -2.10320
C          3.08320        0.62610        1.27040
C          3.47990        1.10990        2.28280
H          0.83840       -1.00050       -0.69340
H          0.48640        0.16640        0.59750
H          1.24820       -1.37350        0.98740
H          3.27700       -0.78290       -0.23150
H          2.37190        0.52350       -2.04850
H          3.67360        1.39870       -1.25360
H          1.97230        2.81960       -0.04390
H          0.67480        1.94340       -0.86910
H          2.79440        3.50130       -2.16330
H          1.24740        3.96790       -1.95770
H          3.83630        1.54020        3.19040
