15
1880	1
C          1.06440       -0.38210       -0.02700
N          2.48890       -0.12820        0.01360
C          3.00650        0.58970        1.17580
C          2.66200       -0.05990        2.45020
C          2.37770       -0.59470        3.49320
N          3.09110        0.10880       -1.20460
C          4.31790       -0.20350       -1.42810
H          0.71990       -0.87710        0.90420
H          0.83580       -1.06870       -0.87010
H          0.51420        0.57040       -0.17440
H          2.61930        1.63150        1.19590
H          4.10780        0.72340        1.14480
H          2.12580       -1.06730        4.40650
H          4.75660        0.01000       -2.39710
H          4.90530       -0.72770       -0.68080
