10
1822	1
F          1.02530        0.08640        0.05650
C          2.38980        0.04890        0.06340
C          2.89650        1.17450       -0.81980
C          4.33990        1.15500       -0.85780
N          5.49040        1.12740       -0.87950
C          2.87130        0.24140        1.41120
N          3.25480        0.39430        2.48550
H          2.69060       -0.92910       -0.32720
H          2.53250        2.14470       -0.45590
H          2.48220        1.05880       -1.82890
