14
1801	1
C          0.95410        0.08410       -0.07150
C          2.48730        0.02770       -0.14220
C          3.01110       -1.42230       -0.25920
C          2.67520       -2.22730        0.92350
N          2.41480       -2.85590        1.85960
C          2.94900        0.88020       -1.29960
O          3.68630        0.43790       -2.16790
H          0.56990       -0.48730        0.79940
H          0.49680       -0.32010       -0.99990
H          0.62490        1.13940        0.05180
H          2.89760        0.48230        0.78470
H          4.11740       -1.41160       -0.35390
H          2.58740       -1.91280       -1.16280
H          2.62480        1.91350       -1.35350
