15
1808	1
O          1.68620       -1.55570        1.36850
C          2.67320       -0.95540        0.56710
C          2.27650       -1.08240       -0.90880
C          2.16900       -2.53030       -1.31140
C          1.02760       -3.04670       -1.77690
C          2.83890        0.49760        0.92890
O          2.16250        1.00570        1.80970
H          2.11710       -1.78360        2.23370
H          3.65090       -1.47260        0.71210
H          3.05270       -0.60570       -1.54610
H          1.31400       -0.54870       -1.07750
H          3.04270       -3.16940       -1.22180
H          0.13660       -2.43470       -1.87890
H          0.98270       -4.09350       -2.05900
H          3.57030        1.10190        0.40180
