12
1851	1
O          1.09830        0.44910       -0.08270
N          2.43610        0.33170       -0.10660
C          3.18780        0.52470        1.11640
C          3.97980       -0.66150        1.46460
N          4.60570       -1.59430        1.74330
C          3.11560        0.07800       -1.33670
N          2.47350       -0.01260       -2.44720
H          0.75890       -0.48000       -0.00310
H          2.52540        0.76990        1.97380
H          3.86690        1.39930        1.03460
H          4.19530       -0.03690       -1.34240
H          1.45010        0.09740       -2.49470
