15
1834	1
C          0.81560       -0.27460       -0.38230
C          2.33510       -0.37790       -0.25720
O          2.71620        0.17190        0.95790
C          3.99280        0.38690        1.39110
C          5.07830        0.15550        0.63750
C          2.76060       -1.82210       -0.34920
O          2.52740       -2.47060       -1.35700
H          0.50470        0.79010       -0.32070
H          0.31850       -0.83860        0.43640
H          0.47620       -0.68050       -1.35940
H          2.79040        0.20450       -1.08850
H          4.13530        0.77230        2.39550
H          5.00470       -0.22240       -0.37540
H          6.06510        0.35200        1.04400
H          3.28490       -2.29230        0.47700
