13
1840	1
C          0.97380        0.18550        0.03840
C          2.49570        0.09020        0.03570
O          2.90890       -0.76240        1.11740
N          3.05880        0.00360        2.28790
C          3.46910       -0.76940        3.23630
C          2.97700       -0.44900       -1.21440
N          3.36060       -0.87870       -2.21090
H          0.61500        0.61310        0.98000
H          0.51700       -0.80690       -0.05090
H          0.60950        0.80780       -0.78630
H          2.92280        1.09160        0.17710
H          3.65570       -0.35740        4.23890
H          3.64890       -1.84960        3.09600
