14
1843	1
C          1.22840        0.09010       -0.28990
N          2.66560        0.05960       -0.06530
C          3.19800        0.48910        1.21330
C          3.31820       -0.64550        2.13350
N          3.41120       -1.54430        2.85610
C          3.57690       -0.41860       -1.06370
N          3.17820       -0.83820       -2.21350
H          0.68870        0.49040        0.59560
H          0.85500       -0.93960       -0.47400
H          0.98520        0.73960       -1.15780
H          2.58030        1.28270        1.68490
H          4.18450        0.98850        1.10400
H          4.64270       -0.42490       -0.85100
H          2.18640       -0.86010       -2.48470
