17
1798	1
C          0.95260        0.10090       -0.17970
C          2.47770       -0.07520       -0.15760
C          2.92720       -0.94100        1.04180
C          2.58470       -0.29110        2.35820
C          1.79470       -0.89220        3.25300
C          2.91940       -0.66600       -1.47770
O          3.52580       -1.72550       -1.53170
H          0.59800        0.59190        0.75070
H          0.44710       -0.88400       -0.27930
H          0.65310        0.74450       -1.03470
H          2.95170        0.92700       -0.06680
H          4.03170       -1.06200        1.01170
H          2.46730       -1.95190        0.96290
H          2.99170        0.69020        2.58390
H          1.37220       -1.87300        3.05710
H          1.56690       -0.39830        4.19190
H          2.69480       -0.13690       -2.39850
