17
1855	1
C          1.95360       -0.35640        0.10050
N          1.78080        1.05920       -0.20160
C          1.49980        2.00190        0.86640
C          2.60380        3.02020        0.95250
C          2.37090        4.32460        0.77880
N          1.86500        1.54230       -1.49840
C          2.11110        0.80390       -2.52710
H          1.84950       -0.56710        1.18550
H          2.96720       -0.68640       -0.21020
H          1.18410       -0.95210       -0.43420
H          1.42880        1.49510        1.85210
H          0.51760        2.48450        0.66810
H          3.61510        2.68380        1.16110
H          1.37090        4.69160        0.56870
H          3.18900        5.03420        0.84700
H          2.16080        1.25990       -3.50950
H          2.27250       -0.26470       -2.44650
