12
1870	1
O          1.03740        0.04920       -0.12240
C          2.46440        0.08770        0.04080
C          2.97680        1.47810       -0.32660
C          4.43060        1.50760       -0.55550
C          5.61910        1.52340       -0.72740
C          2.82550       -0.27380        1.42810
N          3.13220       -0.53960        2.51680
H          0.85190        0.10280       -1.07650
H          2.87970       -0.67140       -0.63770
H          2.70110        2.20800        0.44590
H          2.47510        1.82050       -1.24440
H          6.67480        1.54520       -0.87600
