14
1852	1
O          0.77860        0.92560       -0.34880
N          1.71060        0.20200        0.29270
C          2.80530        0.89430        0.95730
C          2.26300        1.77700        2.04790
C          2.44320        3.10110        2.03480
C          1.61200       -1.15640        0.27960
O          2.43990       -1.85830        0.84090
H          0.06260        1.08080        0.32020
H          3.36280        1.48650        0.19890
H          3.52630        0.18910        1.42220
H          1.71100        1.32370        2.86600
H          2.99020        3.58380        1.23070
H          2.03910        3.71010        2.83680
H          0.78280       -1.62950       -0.23730
