16
1969	2
C          0.54110        0.09250       -0.54360
N          1.93920        0.17050       -0.18160
C          2.94420        0.67440       -1.06900
N          2.64160        1.12090       -2.24040
C          4.38710        0.71220       -0.62800
C          4.96570       -0.68630       -0.40370
F          4.31060       -1.34790        0.61810
H         -0.04460       -0.32540        0.30250
H          0.41340       -0.57290       -1.42350
H          0.15000        1.10590       -0.77420
H          2.21360       -0.14040        0.76130
H          1.67830        1.13220       -2.60160
H          4.47390        1.31460        0.30130
H          5.00080        1.20410       -1.41510
H          6.03770       -0.59670       -0.12810
H          4.89130       -1.28470       -1.33670
