18
1956	1
C          0.96140        0.62470       -0.54720
C          2.43710        0.50550       -0.16620
C          2.98660       -0.89100       -0.33710
O          2.27330       -1.79580       -0.74840
C          4.42510       -1.17650       -0.00350
N          4.50540       -2.17210        1.07080
C          5.89760       -2.41840        1.44740
H          0.62200        1.67110       -0.39640
H          0.34340       -0.04360        0.08990
H          0.81510        0.35440       -1.61470
H          2.55480        0.80700        0.89660
H          3.02600        1.20210       -0.80100
H          4.91980       -0.23450        0.32340
H          4.94130       -1.54750       -0.91730
H          4.09480       -3.07570        0.73670
H          6.37000       -1.48370        1.81930
H          6.47700       -2.81190        0.58310
H          5.93000       -3.16850        2.26530
