17
1955	1
C          0.96870       -0.04740        0.02210
N          2.42340        0.07580        0.12000
C          3.08930       -0.86670       -0.78520
C          4.58660       -0.67140       -0.72530
C          5.38240       -1.68530       -0.34240
C          5.15850        0.67490       -1.10880
F          6.53990        0.71300       -1.01710
H          0.49120        0.67940        0.71250
H          0.63750       -1.07170        0.30280
H          0.63030        0.18540       -1.01040
H          2.70800       -0.13780        1.10510
H          2.76130       -0.68500       -1.83230
H          2.80870       -1.91040       -0.51310
H          4.96100       -2.64840       -0.07100
H          6.46000       -1.57110       -0.29340
H          4.74220        1.45650       -0.43980
H          4.86960        0.90960       -2.15470
