14
1983	2
N          1.37420        0.06460       -1.03700
N          2.68370       -0.01920       -0.57220
C          3.15130        0.83030        0.38400
O          2.42040        1.69680        0.84340
C          4.57550        0.73280        0.87450
C          4.85890       -0.58450        1.59980
F          4.72140       -1.66850        0.75280
H          1.22310        1.01630       -1.44380
H          0.72310       -0.08040       -0.23120
H          3.30520       -0.73440       -0.97440
H          4.76770        1.55880        1.59450
H          5.27260        0.85380        0.01800
H          4.17000       -0.70190        2.46330
H          5.90180       -0.57250        1.98100
