17
1961	1
C          3.06390       -1.01120       -2.72310
O          4.19050       -0.47250       -2.06980
C          4.18630       -0.87810       -0.71800
C          5.44550       -0.37620       -0.05650
C          5.38180        0.45950        0.99230
C          6.78860       -0.82580       -0.57780
O          7.54940        0.27550       -0.99430
H          3.07680       -0.66990       -3.77850
H          2.11680       -0.63890       -2.27290
H          3.09930       -2.12310       -2.74000
H          4.19060       -1.98900       -0.63400
H          3.28820       -0.47050       -0.19840
H          4.42610        0.79340        1.38450
H          6.28990        0.81700        1.46880
H          6.67740       -1.54870       -1.41800
H          7.33800       -1.35580        0.22880
H          7.17350        0.56600       -1.86630
