16
1984	2
C          1.74400       -0.29540        0.83060
C          3.05470        0.44240        0.57280
C          3.70080       -0.01810       -0.74240
C          5.00410        0.68510       -1.04230
O          5.44660        1.52790       -0.27340
N          5.68720        0.37830       -2.17260
O          6.84380        0.99450       -2.46000
H          1.30010        0.05670        1.78550
H          1.92450       -1.38910        0.90420
H          1.02230       -0.09900        0.00920
H          3.74850        0.24500        1.41910
H          2.84720        1.53380        0.52500
H          2.99730        0.17620       -1.58100
H          3.89740       -1.11100       -0.68800
H          5.31550       -0.32830       -2.82530
H          7.54930        0.38410       -2.12370
