15
1923	1
C          1.00150        0.02090       -0.00310
C          2.52830       -0.06060        0.07910
C          2.96370       -0.27380        1.54050
C          4.41160       -0.06590        1.73090
C          5.59010        0.10140        1.88950
C          3.00960       -1.11590       -0.78110
C          3.40640       -1.98560       -1.49000
H          0.62140        0.84660        0.60810
H          0.53050       -0.90500        0.34750
H          0.67180        0.19040       -1.03460
H          2.92940        0.89880       -0.27390
H          2.69140       -1.28120        1.88050
H          2.43060        0.43300        2.18890
H          6.63690        0.24610        2.02700
H          3.76580       -2.76350       -2.12360
