15
1911	1
O          0.87230       -0.24870       -0.61920
C          2.23990       -0.17210       -0.31360
C          2.65110        1.27320        0.03310
C          2.47940        2.20590       -1.14320
C          1.67040        3.27140       -1.09170
C          2.49090       -1.05100        0.83920
C          2.69990       -1.77140        1.78490
H          0.71810        0.29490       -1.43370
H          2.84320       -0.55740       -1.16750
H          3.72560        1.29120        0.31720
H          2.05440        1.62180        0.90490
H          3.03170        2.00800       -2.05710
H          1.09980        3.50410       -0.19770
H          1.57500        3.92240       -1.95600
H          2.87170       -2.40660        2.61540
