15
1891	1
O          0.90260       -0.02190       -0.02920
C          2.32420       -0.08530       -0.04940
C          2.86690        1.26090       -0.50910
C          4.39280        1.27900       -0.53130
O          4.87100        0.29680       -1.44590
C          4.90580        2.59820       -0.93170
C          5.32810        3.67210       -1.26480
H          0.58300       -0.90310        0.23140
H          2.62270       -0.88920       -0.72940
H          2.67290       -0.32360        0.96050
H          2.48050        2.05270        0.14580
H          2.46450        1.47520       -1.50850
H          4.78250        1.01970        0.45920
H          4.71480        0.64690       -2.34060
H          5.70580        4.62460       -1.55880
