18
1930	1
C          1.31380        0.18900        0.68820
C          2.79360        0.23230        0.29780
C          3.11380        0.79960       -1.08310
C          2.15410        1.26830       -1.90810
C          4.55870        0.81060       -1.55880
C          5.47540        1.69310       -0.70850
F          5.60190        1.20250        0.57750
H          1.21250       -0.25040        1.70320
H          0.74240       -0.44470       -0.02310
H          0.88630        1.21390        0.71050
H          3.18290       -0.80760        0.33960
H          3.31270        0.83520        1.06900
H          1.10720        1.27820       -1.63230
H          2.40810        1.65720       -2.88940
H          4.61790        1.19550       -2.60090
H          4.95040       -0.22900       -1.56820
H          5.08950        2.73420       -0.67910
H          6.48770        1.70600       -1.16490
