18
1905	1
C          1.02470        0.09420        0.07340
C          2.53870       -0.04310       -0.04330
N          3.19290        0.53710        1.13850
C          4.66240        0.45580        1.07130
C          5.26780        1.19780        2.26440
C          5.12040       -0.94870        1.07630
C          5.48070       -2.09930        1.05860
H          0.53990       -0.36390       -0.81390
H          0.73800        1.16530        0.12990
H          0.66080       -0.42800        0.98430
H          2.87740        0.48180       -0.96360
H          2.78320       -1.12410       -0.13450
H          2.85650        0.04470        2.00030
H          5.02540        0.94590        0.14080
H          4.91730        0.75460        3.22210
H          4.96460        2.26620        2.23830
H          6.37730        1.14690        2.23310
H          5.78600       -3.11250        1.04360
