13
1896	1
F          2.75860        0.89680       -1.11140
C          2.36890        0.08390       -0.06140
C          2.88630       -1.33880       -0.27420
C          4.41830       -1.36660       -0.31950
F          4.93290       -0.90130        0.87760
C          4.91000       -2.73070       -0.53810
C          5.31200       -3.85340       -0.71380
H          1.26050        0.07570       -0.00880
H          2.76280        0.50100        0.89000
H          2.46910       -1.73190       -1.22820
H          2.52680       -1.98300        0.55880
H          4.78520       -0.72210       -1.14660
H          5.67220       -4.83820       -0.85520
