16
1893	1
C          1.05340        0.06520       -0.16290
C          2.57830        0.03000       -0.11380
C          3.07690       -0.90380        0.99780
C          4.60920       -0.93020        1.05220
F          5.09460        0.33840        1.31510
C          5.07590       -1.83520        2.10950
C          5.45620       -2.57510        2.98250
H          0.72230        0.73980       -0.98050
H          0.64540        0.44540        0.79790
H          0.64860       -0.95110       -0.35450
H          2.95140        1.06210        0.06450
H          2.96250       -0.32070       -1.09660
H          2.69540       -1.93220        0.80660
H          2.68080       -0.55430        1.97700
H          5.01730       -1.27970        0.07950
H          5.79580       -3.21490        3.75440
