17
1934	1
N          2.61000       -1.25050        0.42420
C          2.22790        0.01190       -0.19930
C          2.84330        1.17050        0.55150
C          2.05530        2.10850        1.10320
C          4.35250        1.27000        0.65280
C          4.86330        1.12810        2.08960
F          4.40970        2.15680        2.89420
H          2.19250       -2.03420       -0.12790
H          2.20780       -1.28970        1.38930
H          1.11690        0.08420       -0.22790
H          2.59640        0.03120       -1.24750
H          0.97410        2.04350        1.02590
H          2.47920        2.95680        1.62910
H          4.69420        2.23430        0.21860
H          4.81280        0.45040        0.05900
H          5.97350        1.15530        2.08520
H          4.53710        0.15550        2.51600
