16
1938	1
O          2.72000       -0.68740        1.28630
C          2.27750       -0.11270        0.08990
C          2.78960        1.30710       -0.03490
C          1.91500        2.32760       -0.07560
C          4.27870        1.58790       -0.15790
C          5.07850        1.16590        1.07350
F          6.40720        1.50730        0.89830
H          2.42810       -1.63560        1.26280
H          1.16410       -0.13320        0.08150
H          2.65090       -0.69550       -0.78130
H          0.84610        2.15090       -0.00430
H          2.25680        3.35290       -0.17920
H          4.45420        2.67630       -0.30740
H          4.67310        1.05940       -1.05210
H          5.02610        0.07040        1.22900
H          4.69200        1.68720        1.97510
