15
2072	1
C          3.69020       -0.85170        1.23610
C          3.37810        0.28120        0.25950
O          3.25920       -0.18510       -1.03800
C          4.29230       -0.66220       -1.78310
O          5.43630       -0.63880       -1.34730
N          4.04610       -1.15070       -3.02600
N          5.07120       -1.63480       -3.83400
H          3.74730       -0.44570        2.26800
H          4.65990       -1.33340        0.99570
H          2.88650       -1.61720        1.19610
H          4.15810        1.07200        0.31260
H          2.40850        0.73310        0.55740
H          3.07960       -1.16190       -3.38310
H          5.54370       -2.42610       -3.33960
H          5.75850       -0.86400       -3.99940
