17
1991	2
C          1.39410       -0.62450        0.01770
N          2.84500       -0.69850        0.19330
C          3.40140        0.62700        0.49230
C          4.88070        0.58870        0.81810
O          5.44130        1.64710        1.06560
N          5.58370       -0.58360        0.84860
C          6.99850       -0.64100        1.16360
H          1.00010       -1.63550       -0.21890
H          1.13030        0.06250       -0.81650
H          0.90860       -0.27780        0.95540
H          3.25970       -1.04260       -0.70500
H          2.87930        1.06400        1.37230
H          3.24880        1.30010       -0.38150
H          5.11130       -1.47600        0.64880
H          7.54650       -1.09060        0.30950
H          7.14850       -1.27760        2.06070
H          7.43510        0.35880        1.36980
