16
1990	2
C          3.46790        1.18620        0.82660
N          4.49470        0.55330       -0.00180
C          3.91140       -0.50860       -0.83230
C          4.91410       -1.14380       -1.77910
N          6.13730       -0.74110       -1.85450
N          4.48210       -2.21150       -2.61080
O          5.33990       -2.81710       -3.44540
H          3.93750        1.96920        1.45910
H          2.98130        0.43940        1.49240
H          2.70080        1.67320        0.18650
H          5.20340        0.12600        0.64050
H          3.08420       -0.09320       -1.44990
H          3.49980       -1.30810       -0.17630
H          6.51070        0.03270       -1.28810
H          3.50800       -2.54460       -2.55720
H          5.23970       -2.33750       -4.30720
