18
2020	2
C          1.57250       -0.66820       -1.36870
C          2.40750       -0.10830       -0.21910
C          2.95180        1.26470       -0.54230
N          2.14500        2.24980       -0.73770
N          4.36690        1.46300       -0.61490
N          4.93870        2.70370       -0.91510
C          5.77190        3.11870        0.21040
H          1.20180       -1.67920       -1.09900
H          2.19220       -0.75010       -2.28710
H          0.69540       -0.02150       -1.57860
H          3.24420       -0.81340       -0.02730
H          1.78920       -0.05120        0.70210
H          1.12300        2.13180       -0.67980
H          4.98960        0.65500       -0.46040
H          4.20700        3.43450       -1.06760
H          6.58590        2.38130        0.37850
H          5.15970        3.21440        1.13410
H          6.23650        4.10190       -0.01460
