13
2035	2
C          2.89010       -2.83010       -0.14360
O          3.25960       -1.48130        0.00230
N          4.60030       -1.43270       -0.11750
C          5.38650       -1.30980        0.98490
O          4.87430       -1.25740        2.09340
C          6.88600       -1.23630        0.87210
F          7.31280       -1.30950       -0.44210
H          1.78800       -2.90610       -0.04250
H          3.34100       -3.45750        0.65730
H          3.15870       -3.20990       -1.15430
H          5.02100       -1.46270       -1.05870
H          7.33790       -2.07700        1.43910
H          7.24030       -0.27870        1.30780
