18
2061	1
C          3.58150       -1.81570        1.37980
C          4.75300       -1.29500        0.56180
O          5.86540       -1.17520        1.37360
C          7.09400       -0.72700        0.98200
C          7.34210       -0.32370       -0.28090
C          8.19420       -0.68460        2.01240
N          8.45800       -2.02640        2.52190
H          2.68590       -1.91510        0.73080
H          3.35070       -1.10940        2.20550
H          3.82770       -2.81000        1.80920
H          4.48140       -0.30280        0.13960
H          4.96280       -2.00890       -0.26460
H          6.57420       -0.33950       -1.04560
H          8.32800        0.03050       -0.56600
H          7.88410       -0.01840        2.84720
H          9.13550       -0.27610        1.58220
H          7.60910       -2.38250        3.01880
H          9.23190       -1.96860        3.22260
