16
2082	1
F          1.73250       -0.79580        1.03670
C          1.35660        0.06450        0.02180
C          2.05060       -0.32770       -1.25960
C          1.33070       -0.67270       -2.33970
C          3.56140       -0.33730       -1.31510
C          4.10340        1.04550       -1.07440
C          4.91240        1.31280       -0.04480
H          1.64120        1.10040        0.30060
H          0.25040        0.02930       -0.07780
H          0.24540       -0.67200       -2.30970
H          1.81850       -0.95940       -3.26640
H          3.92600       -0.67520       -2.30940
H          3.93900       -1.05850       -0.55770
H          3.82940        1.84550       -1.75620
H          5.20430        0.53510        0.65420
H          5.28680        2.32060        0.10170
