16
1995	2
C          5.22860        0.88870        0.13470
O          5.52410       -0.32720       -0.51340
C          4.31950       -0.97870       -0.86120
C          4.57830       -2.31180       -1.53170
N          5.77810       -2.74340       -1.72810
N          3.45690       -3.09420       -1.94830
N          3.59240       -4.34460       -2.55270
H          6.18520        1.39490        0.37820
H          4.69740        0.71490        1.09680
H          4.65810        1.57580       -0.52920
H          3.73770       -0.35650       -1.57840
H          3.71250       -1.18550        0.04970
H          6.61470       -2.21420       -1.44510
H          2.50790       -2.72350       -1.79020
H          4.59530       -4.61480       -2.65770
H          3.17020       -4.28360       -3.50660
