16
2022	2
C          3.36790       -1.86390        0.96330
N          4.20710       -1.03620        0.10090
N          4.62290        0.08350        0.81680
C          6.00760        0.35570        1.02020
N          6.91360       -0.43380        0.55430
C          6.40720        1.58740        1.79060
O          7.80200        1.71820        1.87540
H          3.03670       -2.76250        0.40180
H          2.46820       -1.30030        1.29520
H          3.94610       -2.19850        1.85130
H          3.64130       -0.70550       -0.71450
H          3.91980        0.73840        1.19480
H          6.67920       -1.28420        0.02290
H          5.95890        1.56270        2.80970
H          6.00250        2.48290        1.27430
H          8.10130        1.11720        2.60720
