13
1987	2
O          2.99230       -2.05070        3.78780
N          3.56640       -1.39940        2.76490
C          4.16890       -2.08670        1.76180
O          4.18380       -3.30930        1.78300
C          4.81600       -1.35560        0.61350
C          6.30800       -1.66890        0.53500
F          6.87070       -0.98680       -0.52820
H          2.03330       -2.11560        3.54380
H          3.55230       -0.36850        2.75410
H          4.69040       -0.25760        0.73140
H          4.32260       -1.66160       -0.33400
H          6.46800       -2.75810        0.38550
H          6.81390       -1.35350        1.47260
