18
2001	1
C          1.62010       -0.34850        0.60440
O          2.83080        0.23490        0.28700
C          3.04690        1.57000        0.10190
C          2.05960        2.48070        0.22650
C          4.44140        2.02100       -0.25940
C          5.44020        1.63460        0.83470
N          6.78230        2.07960        0.47340
H          1.75970       -1.44520        0.69440
H          0.87720       -0.15250       -0.19790
H          1.24750        0.03960        1.57630
H          1.04670        2.19160        0.48220
H          2.25690        3.53700        0.07170
H          4.48370        3.12340       -0.40530
H          4.73110        1.53570       -1.21610
H          5.44110        0.53110        0.98130
H          5.14380        2.12000        1.79060
H          7.08950        1.57930       -0.39200
H          7.43850        1.81410        1.24270
