15
2118	2
O          2.52110       -0.93960        0.20150
C          2.02750        0.37060        0.20730
C          2.60460        1.12660       -0.96470
C          1.77160        1.60630       -1.90970
N          4.03360        1.24690       -1.05780
C          4.76870        2.19190       -1.84450
N          4.28180        3.32450       -2.21580
H          2.18600       -1.36470        1.03340
H          2.34170        0.89100        1.13910
H          0.91500        0.34170        0.16760
H          0.69760        1.47660       -1.81680
H          2.13030        2.09260       -2.80620
H          4.59570        0.58300       -0.50480
H          5.81960        2.00040       -2.03470
H          3.33080        3.63550       -1.98550
