13
2132	3
F          3.30180        0.68570        0.59330
C          2.28220       -0.10700        0.09760
C          2.80500       -1.27120       -0.71250
N          1.96010       -2.08710       -1.23110
N          4.22200       -1.44650       -0.88870
C          4.89990       -2.48280       -1.61870
N          4.30930       -3.44170       -2.24500
H          1.62660        0.52140       -0.54140
H          1.68720       -0.49100        0.95280
H          0.94430       -1.96240       -1.10540
H          4.83880       -0.75270       -0.44330
H          5.98460       -2.45570       -1.64400
H          3.29830       -3.58190       -2.29940
