12
2170	2
O          2.33950        1.09260        0.59020
N          2.15480       -0.14820        0.11390
C          3.17840       -0.84920       -0.44150
O          2.96810       -1.97970       -0.86000
N          4.42620       -0.30420       -0.53370
C          5.51830       -1.01700       -1.11190
N          6.68280       -0.47980       -1.18610
H          2.06580        1.69380       -0.14930
H          1.21850       -0.57610        0.18000
H          4.59410        0.64900       -0.17830
H          5.37920       -2.02280       -1.49660
H          6.85630        0.47250       -0.83250
