14
2173	1
N         -0.14200        0.40400       -1.23340
N          1.01180        0.09070       -0.52100
C          2.29220        0.59040       -0.91950
N          2.41550        1.32890       -1.96780
N          3.45330        0.27170       -0.16140
N          3.36290       -0.51250        0.96690
C          4.40260       -0.80320        1.66470
H         -0.95160       -0.07540       -0.77700
H         -0.30020        1.43450       -1.15530
H          0.94090       -0.52380        0.30410
H          1.61300        1.58830       -2.55820
H          4.36900        0.63960       -0.46620
H          4.30060       -1.42280        2.54870
H          5.38570       -0.43660        1.38340
