14
2102	2
C          1.27990        0.13890       -0.40920
N          2.69290       -0.00560       -0.13420
C          3.19400       -1.12040        0.46510
O          2.44880       -2.03730        0.78460
C          4.67070       -1.24190        0.73470
C          4.92170       -1.39580        2.20490
O          5.60880       -0.58270        2.80230
H          1.08830        1.11730       -0.89850
H          0.70200        0.09570        0.53850
H          0.94020       -0.67140       -1.08900
H          3.32880        0.76090       -0.40210
H          5.21040       -0.34580        0.35740
H          5.06700       -2.13240        0.20270
H          4.49470       -2.23600        2.74340
