12
2153	2
F          0.06380       -1.30160        0.19410
C          1.04010       -0.32790        0.07280
C          2.41210       -0.94720        0.03600
O          2.52800       -2.16170        0.11090
N          3.52270       -0.17490       -0.07940
N          3.41910        1.19650       -0.16560
C          4.46160        1.94060       -0.27510
H          0.96600        0.36260        0.93900
H          0.86290        0.24150       -0.86360
H          4.45140       -0.62700       -0.10210
H          4.34930        3.01710       -0.34090
H          5.45750        1.50750       -0.30280
