12
2177	1
O          1.94980        3.02480       -0.24420
N          2.42150        1.81590        0.09700
C          3.15460        1.08910       -0.78910
O          3.37830        1.54230       -1.90250
N          3.64440       -0.13590       -0.45840
N          3.41400       -0.68150        0.78590
C          3.87400       -1.83880        1.10490
H          1.02160        2.85990       -0.55170
H          2.22470        1.45490        1.04190
H          4.19720       -0.65970       -1.15670
H          3.67650       -2.24250        2.09170
H          4.45980       -2.42170        0.39980
