15
2180	1
C          1.16300        0.88130        1.46560
O          2.27060        0.59240        0.69470
C          3.56540        0.83060        1.05090
N          3.86550        1.36830        2.18630
N          4.59820        0.47200        0.13820
C          5.97680        0.68530        0.43030
C          6.92120        0.33740       -0.44750
H          0.24980        0.57610        0.91480
H          1.10560        1.97290        1.66410
H          1.20160        0.31750        2.42220
H          3.15580        1.64450        2.87850
H          4.33130        0.04410       -0.76170
H          6.27650        1.13460        1.37270
H          6.65710       -0.11390       -1.39890
H          7.96760        0.50490       -0.21370
