11
2093	1
F          3.21280       -0.81410        0.57750
C          2.29630        0.05400        0.01100
C          2.74810        1.47730        0.17710
O          1.91670        2.36640        0.28140
C          4.21030        1.81810        0.20250
C          4.83040        1.42930       -1.06760
N          5.31740        1.11390       -2.06870
H          1.31370       -0.09600        0.50530
H          2.20110       -0.17580       -1.07070
H          4.69980        1.27750        1.04070
H          4.35590        2.90870        0.35440
