14
2127	3
N          0.72630        0.06730        0.25870
C          1.99520       -0.54690       -0.12630
C          3.03410        0.46120       -0.61060
N          2.77520        1.72450       -0.64010
N          4.32820        0.02580       -1.03730
C          4.71070       -1.27780       -1.04190
O          5.83120       -1.58230       -1.41900
H          0.10110       -0.67910        0.64050
H          0.26100        0.44910       -0.59720
H          1.80300       -1.28870       -0.93270
H          2.41240       -1.07820        0.75630
H          1.87400        2.12360       -0.34470
H          5.00340        0.73840       -1.35680
H          4.03950       -2.06360       -0.71550
