16
2146	2
C          0.21470       -1.85940        0.41580
C          0.12950       -0.35040        0.19120
C          1.47100        0.32870        0.39220
N          1.62790        1.17300        1.35100
N          2.56580        0.06460       -0.47950
N          2.41730       -0.76280       -1.57030
C          3.39560       -0.99720       -2.37040
H         -0.79070       -2.31000        0.27780
H          0.55890       -2.07160        1.45050
H          0.90850       -2.34350       -0.29980
H         -0.61690        0.04850        0.91230
H         -0.24160       -0.13590       -0.83350
H          0.86400        1.40250        2.00370
H          3.46890        0.53430       -0.30500
H          3.24880       -1.65360       -3.22090
H          4.37130       -0.54820       -2.20760
