13
2143	2
F          1.99700       -0.58290       -0.04230
C          1.66440       -1.60180       -0.91750
C          2.85700       -2.09920       -1.69190
O          2.69360       -3.00200       -2.50090
N          4.09540       -1.56050       -1.50140
C          5.23480       -2.02010       -2.22660
C          6.43780       -1.47680       -2.02280
H          0.89860       -1.22370       -1.62680
H          1.22960       -2.44110       -0.33520
H          4.21930       -0.79990       -0.81630
H          5.13860       -2.82000       -2.95590
H          6.57180       -0.67580       -1.30220
H          7.29680       -1.83530       -2.58080
