14
2138	3
N          1.48960       -0.36310       -1.52550
C          1.59520       -0.20590       -0.07880
C          3.01810       -0.40930        0.36420
O          3.27640       -1.30120        1.16070
N          4.00380        0.39560       -0.11960
C          5.36640        0.24010        0.27040
N          6.27560        1.00720       -0.21450
H          0.49530       -0.20110       -1.80540
H          1.73860       -1.34600       -1.78340
H          0.92420       -0.93740        0.42560
H          1.27320        0.81900        0.20600
H          3.75820        1.13960       -0.79070
H          5.65240       -0.52970        0.98090
H          6.04490        1.74820       -0.89270
