13
2141	3
O          1.27570       -0.89050        0.49110
C          1.51110        0.49200        0.46360
C          2.87610        0.83870       -0.08510
O          3.19610        2.01790       -0.14210
N          3.74090       -0.12860       -0.50890
C          5.03070        0.19130       -1.02780
N          5.82610       -0.73820       -1.41950
H          0.96920       -1.14600       -0.41830
H          1.43190        0.87780        1.50170
H          0.72210        1.00380       -0.13380
H          3.46650       -1.12040       -0.45650
H          5.35660        1.22460       -1.09860
H          5.55490       -1.73120       -1.36910
