16
2116	2
N          2.85900       -0.79440       -0.70090
C          2.18050        0.21420        0.10580
C          2.43440       -0.03440        1.57530
C          1.38790       -0.28990        2.38550
N          3.79510       -0.05280        2.03750
C          4.24660        0.08530        3.38980
N          3.56270        0.68850        4.29860
H          2.69170       -0.58130       -1.71080
H          2.44260       -1.73210       -0.49750
H          1.09360        0.20620       -0.13710
H          2.57790        1.21860       -0.15390
H          0.37460       -0.28910        1.99520
H          1.51070       -0.54430        3.42900
H          4.52900       -0.18790        1.32650
H          5.25790       -0.22400        3.63180
H          2.64170        1.10930        4.12820
