13
2226	2
N          1.61430       -1.04680       -0.21090
N          2.79970       -0.34060       -0.01630
C          3.26150        0.55450       -0.93360
O          2.61710        0.79720       -1.94360
C          4.57530        1.24660       -0.70940
C          4.59130        1.94920        0.57960
C          4.60830        2.52750        1.63780
H          1.80910       -1.83820       -0.86270
H          0.89990       -0.41780       -0.64610
H          3.33590       -0.50310        0.84790
H          4.78400        1.96820       -1.52960
H          5.37340        0.47560       -0.69950
H          4.61370        3.00010        2.58500
