11
2212	1
O          0.98450       -1.12350       -0.71620
N          1.99810       -0.28350       -0.45720
C          2.66340       -0.34650        0.72030
O          2.34600       -1.17820        1.56000
O          3.67960        0.51530        0.96120
N          4.35020        0.48400        2.09570
C          5.30970        1.30890        2.30540
H          1.39240       -1.86510       -1.23310
H          2.26540        0.42130       -1.16050
H          5.85520        1.27500        3.24190
H          5.58230        2.04310        1.55260
