12
2195	1
F          0.43450        0.34150        0.30330
C          1.79460        0.07910        0.31170
C          2.19670       -0.95940       -0.72030
C          1.27220       -1.51670       -1.51560
O          3.49290       -1.35990       -0.87820
C          4.59420       -0.94760       -0.19170
O          4.52610       -0.12340        0.70600
H          2.06510       -0.28290        1.32540
H          2.32640        1.03090        0.10380
H          0.22290       -1.24930       -1.44930
H          1.56600       -2.25870       -2.25200
H          5.56020       -1.36660       -0.45030
