12
2199	1
F          3.07990        0.80690        0.85910
C          2.14420        0.24430        0.00960
C          2.72250       -0.94250       -0.69630
O          2.02960       -1.56440       -1.49000
O          4.00570       -1.31530       -0.44930
C          4.61100       -2.37450       -1.04120
C          5.87480       -2.66940       -0.74010
H          1.83030        1.00420       -0.73640
H          1.26030       -0.07030        0.60310
H          4.07940       -2.99100       -1.76170
H          6.42460       -2.06720       -0.02330
H          6.36350       -3.51610       -1.21120
