14
2200	1
C          0.89980        0.18770        0.37670
C          2.42570        0.14700        0.29040
C          2.93610       -0.64650       -0.88410
O          2.15830       -1.18480       -1.66140
O          4.27230       -0.75730       -1.07010
N          4.76910       -1.44040       -2.08220
C          6.03830       -1.53360       -2.24130
H          0.59330        0.78580        1.26060
H          0.49160       -0.83990        0.48500
H          0.47390        0.65870       -0.53500
H          2.82460       -0.30460        1.22380
H          2.80700        1.18720        0.20840
H          6.43710       -2.09780       -3.07710
H          6.71980       -1.05210       -1.54580
