15
2282	1
C          3.77130        1.33800        1.05610
C          4.04780        0.52590       -0.20860
O          3.39600       -0.69480       -0.18210
C          3.70220       -1.71550        0.66210
O          4.65610       -1.63010        1.42460
C          2.87670       -2.94160        0.63090
C          3.12380       -3.98910        1.42570
H          4.27680        2.32380        0.98170
H          4.15250        0.81760        1.95830
H          2.67880        1.50330        1.16800
H          5.14080        0.37530       -0.34700
H          3.66660        1.10440       -1.07640
H          2.04150       -2.99160       -0.06120
H          3.94880       -3.97910        2.13150
H          2.49220       -4.86980        1.37040
