12
2214	1
C          1.24730        0.08290       -1.05960
O          2.54380        0.10480       -0.58960
C          3.08440       -0.89500        0.15170
O          2.42240       -1.88460        0.44050
O          4.36660       -0.78640        0.56940
N          4.93460       -1.73190        1.29130
C          6.15160       -1.61060        1.67770
H          1.05290        1.01200       -1.63390
H          0.53210        0.03170       -0.21070
H          1.09710       -0.78970       -1.73090
H          6.60970       -2.39390        2.27130
H          6.72970       -0.72900        1.41590
