14
2253	1
C          0.99300        0.24140       -0.03790
N          2.45610        0.24470       -0.00440
C          3.00580       -0.25410       -1.27020
C          4.51360       -0.20710       -1.23650
O          5.11330       -0.85110       -0.38950
C          5.28790        0.59040       -2.21050
O          4.72680        1.24180       -3.07720
H          0.60130        0.60150        0.93690
H          0.60310       -0.78500       -0.21720
H          0.62290        0.92560       -0.83140
H          2.76310       -0.38410        0.77480
H          2.61950        0.36260       -2.11080
H          2.68780       -1.30740       -1.43910
H          6.37200        0.59680       -2.15790
