13
2210	1
C          1.01170       -0.60320       -0.17770
N          2.45180       -0.48140       -0.11390
C          3.07990        0.03250        0.97480
O          2.43210        0.41060        1.94300
O          4.43100        0.12390        0.98210
N          5.07900        0.61660        2.01900
C          6.35920        0.69470        2.00670
H          0.71300       -1.04570       -1.15160
H          0.54080        0.39840       -0.08240
H          0.64950       -1.26330        0.63920
H          3.01550       -0.79410       -0.91890
H          6.88300        1.10150        2.86460
H          6.92570        0.35660        1.14370
