14
2242	1
F          0.49850       -0.33910       -1.49220
C          1.48410        0.17300       -0.66840
C          2.76570       -0.64660       -0.82950
C          3.90420       -0.15350        0.04050
O          3.73960        0.81060        0.77380
C          5.23280       -0.81560        0.02900
C          5.51450       -1.87650       -0.73730
H          1.12980        0.12850        0.38370
H          1.66850        1.23260       -0.94700
H          3.08110       -0.59960       -1.89410
H          2.54300       -1.70260       -0.56470
H          6.01310       -0.42000        0.67310
H          4.77690       -2.31520       -1.40000
H          6.50570       -2.31700       -0.70160
