16
2264	2
C          2.82580        1.53890        0.16380
C          2.64790        0.07320       -0.23430
N          3.27910       -0.82430        0.71850
C          4.62890       -0.88170        0.89770
O          5.37240       -0.16670        0.23910
C          5.19810       -1.82990        1.88690
C          6.51530       -1.93430        2.09750
H          2.29730        2.18640       -0.56730
H          3.89430        1.83320        0.17470
H          2.39250        1.71250        1.17170
H          3.05490       -0.10700       -1.25290
H          1.55630       -0.13690       -0.25690
H          2.67420       -1.45900        1.26220
H          4.52600       -2.46160        2.46050
H          7.22470       -1.32350        1.54760
H          6.89070       -2.64090        2.83060
