14
2186	1
C          0.05620        1.51650        1.02880
O          0.99140        0.57930        0.63900
C          2.34360        0.70840        0.76620
N          2.86980        1.77520        1.26640
N          3.17130       -0.35900        0.29120
N          4.55380       -0.37590        0.37280
C          5.22740        0.15990        1.33240
H          0.20470        2.46520        0.47000
H          0.12580        1.69860        2.12260
H         -0.95860        1.13060        0.80100
H          2.31030        2.56920        1.60600
H          2.71210       -1.11080       -0.24280
H          6.31010        0.10530        1.31720
H          4.74820        0.61620        2.18920
