12
2272	2
C          0.84220        0.27770       -0.38320
N          2.16460       -0.13420        0.08890
N          2.18930       -0.11740        1.48910
C          3.03540        0.68370        2.19800
O          3.80530        1.44640        1.63240
C          3.02630        0.62970        3.63770
N          3.00800        0.57570        4.79340
H          0.84340        0.29440       -1.49420
H          0.59050        1.29820       -0.02020
H          0.06090       -0.44070       -0.05390
H          2.86880        0.52620       -0.31050
H          1.56300       -0.75390        2.00710
