13
2339	1
C          1.38000        0.23030        1.04090
C          2.64280        0.02650        0.66860
O          3.11330       -1.23900        0.54190
C          4.38370       -1.53990        0.16800
O          5.18970       -0.65190       -0.08060
C          4.78100       -2.96050        0.06480
C          6.01390       -3.33270       -0.29740
H          0.99900        1.24120        1.14370
H          0.72370       -0.61030        1.24400
H          3.28230        0.88290        0.47030
H          4.04520       -3.72640        0.29130
H          6.77850       -2.59850       -0.53210
H          6.26300       -4.38710       -0.36030
