12
2367	2
C          2.51850        0.33750       -1.06680
O          2.49500       -0.06160        0.28180
N          3.14930        0.88130        0.98940
C          4.47570        0.75860        1.25420
O          5.04260        1.59760        1.93640
C          5.22790       -0.35260        0.72370
C          5.82960       -1.29150        0.26680
H          1.97660       -0.42540       -1.66270
H          3.55930        0.37340       -1.45770
H          1.99740        1.30900       -1.21010
H          2.62250        1.68170        1.37350
H          6.34230       -2.12160       -0.14200
