12
2292	1
C          0.90840       -0.06640       -0.05480
C          2.25440       -0.06650       -0.04450
C          3.03050       -0.08440        1.24120
C          3.36930       -1.50000        1.65950
O          3.00560       -2.51510        1.07830
C          2.95670       -0.04210       -1.26230
N          3.53300       -0.02220       -2.25840
H          0.33040       -0.10030        0.86360
H          0.34520       -0.07040       -0.98560
H          2.45950        0.37910        2.05480
H          3.96670        0.47730        1.14200
H          3.97690       -1.57480        2.57810
