13
2335	1
C          1.07710       -0.13630       -0.07270
C          2.39250        0.06380       -0.00580
O          3.20410       -0.50880       -0.93330
C          4.56410       -0.41970       -1.02550
C          5.31470        0.28800       -0.15280
C          5.21420       -1.14290       -2.14280
O          6.42570       -1.11650       -2.29890
H          0.41890        0.31580        0.66230
H          0.65330       -0.75130       -0.86060
H          2.77850        0.68280        0.79360
H          4.88880        0.83170        0.67760
H          6.39410        0.33340       -0.26120
H          4.60190       -1.70820       -2.83770
