12
2342	1
C          1.15400       -0.30260       -0.79600
C          2.42990       -0.06200       -0.47320
C          3.09670       -0.73540        0.66170
O          2.48870       -1.54580        1.34890
O          4.39050       -0.44450        0.93230
N          5.02720       -1.01910        1.93350
C          6.25340       -0.73020        2.17380
H          0.70320        0.21400       -1.63720
H          0.55310       -1.00880       -0.23120
H          2.99660        0.65180       -1.06340
H          6.76840       -1.20820        2.99970
H          6.78310       -0.00970        1.55690
