9
2326	3
O          0.94240       -0.11940       -0.10400
C          2.15060        0.05470       -0.08190
N          2.98970       -1.00510       -0.21550
C          4.34470       -0.87640       -0.19890
O          4.87500        0.21730       -0.06090
C          5.16960       -2.04910       -0.34630
N          5.81890       -2.99940       -0.46570
H          2.53480        1.06270        0.04550
H          2.58300       -1.94620       -0.33430
