13
2295	1
C          3.97410       -0.77780        1.19590
C          3.00740       -0.12050        0.54350
C          3.22590        0.56280       -0.75610
O          2.28170        1.13830       -1.27800
C          4.57910        0.55680       -1.43590
C          4.57810        1.31890       -2.73100
O          4.85890        0.75770       -3.77810
H          3.75230       -1.25780        2.14360
H          4.98290       -0.84730        0.80440
H          2.01580       -0.08520        0.98590
H          4.87780       -0.49690       -1.62800
H          5.32690        1.02510       -0.76160
H          4.33100        2.37580       -2.73770
