14
2363	2
C          0.91160       -0.07370       -0.30940
C          2.41530        0.00280       -0.07650
N          2.70300        0.33750        1.29740
C          2.85260        1.60720        1.75320
O          2.74310        2.57700        1.01310
C          3.13970        1.78480        3.14470
C          3.38050        1.93610        4.31170
H          0.70830       -0.35050       -1.36220
H          0.43700        0.90440       -0.10590
H          0.44720       -0.83310        0.34850
H          2.87080        0.74320       -0.75660
H          2.87120       -0.98740       -0.29400
H          2.78620       -0.43370        1.97610
H          3.59150        2.04010        5.34000
