11
2322	2
C          1.05560        0.16780        0.13020
C          2.39130        0.16540        0.14380
N          3.11440       -0.75390       -0.67060
C          4.47250       -0.79800       -0.69330
O          5.13900       -0.03850       -0.00530
C          5.13700       -1.75510       -1.54180
N          5.65670       -2.52870       -2.22780
H          0.50250        0.86610        0.74880
H          0.50930       -0.52840       -0.49960
H          2.91490        0.87220        0.78280
H          2.58810       -1.41200       -1.26620
