11
2299	1
O          2.28630       -0.91650        0.74120
C          1.96370        0.07930        0.11110
C          2.99340        0.97820       -0.52220
C          4.41690        0.53660       -0.27370
O          5.12150        0.22060       -1.21990
C          4.98630        0.50390        1.08940
O          4.31890        0.84440        2.05340
H          0.91170        0.31710       -0.00530
H          2.86640        2.00980       -0.13120
H          2.79510        0.99460       -1.61570
H          6.01270        0.18350        1.23730
