12
2320	3
C          0.76680       -0.32230        0.00150
C          2.03940        0.07270       -0.11940
C          3.08810       -0.33200        0.84980
O          2.79760       -1.05110        1.79810
N          4.36900        0.10160        0.67550
C          5.37260       -0.23450        1.52830
O          6.50470        0.17780        1.33160
H          0.03070       -0.00370       -0.72950
H          0.44930       -0.95990        0.82090
H          2.31080        0.71050       -0.95560
H          4.58750        0.70670       -0.13170
H          5.18620       -0.86910        2.39020
