14
2310	3
C          0.83270       -0.06980        0.19920
C          2.16240       -0.03780        0.02630
C          3.12640       -1.01270        0.64320
N          2.70460       -2.08510        1.22320
N          4.54330       -0.84440        0.50310
C          5.23370        0.37550        0.21180
N          4.73570        1.53740        0.45500
H          0.21440        0.67190       -0.29630
H          0.33650       -0.80070        0.82260
H          2.55040        0.73920       -0.62160
H          1.71220       -2.32550        1.33280
H          5.12970       -1.68440        0.62100
H          6.26530        0.32000       -0.12010
H          3.80630        1.67930        0.86730
