13
2378	2
C          1.00020       -0.08180        0.04160
C          2.33210       -0.09850        0.14270
N          3.19540       -0.86740       -0.59130
C          4.55530       -0.93780       -0.54430
N          5.41420       -0.32180        0.17980
C          5.20590       -1.85200       -1.44750
C          5.74940       -2.61440       -2.20040
H          0.40820        0.57030        0.67680
H          0.46720       -0.70740       -0.66600
H          2.81480        0.55000        0.86990
H          2.74900       -1.47480       -1.27090
H          4.92680        0.31700        0.80770
H          6.25260       -3.28340       -2.85860
