10
2332	2
C          1.20890       -0.08880       -0.33830
N          2.49550       -0.04990       -0.34210
N          3.13400       -0.12440        0.86920
C          4.48760       -0.09620        0.99340
O          5.00450       -0.16770        2.11060
C          5.32850        0.01820       -0.18770
N          6.00400        0.10940       -1.12720
H          0.65240       -0.03320       -1.26730
H          0.62930       -0.17960        0.60040
H          2.57100       -0.20440        1.71970
