19
2457	1
C          2.66350        1.15450        1.33430
C          2.55280        0.43210       -0.00770
N          3.17130        1.20600       -1.07620
C          2.37060        1.70240       -2.18420
C          4.57860        1.45520       -1.04450
N          5.14480        2.14090       -1.97850
C          6.56450        2.41480       -1.99070
H          2.17340        0.54720        2.12420
H          2.15690        2.14120        1.27600
H          3.72410        1.30760        1.62150
H          1.47260        0.26470       -0.20860
H          3.04040       -0.56450        0.05770
H          1.29950        1.42910       -2.08100
H          2.74450        1.27480       -3.13870
H          2.43840        2.81000       -2.22830
H          5.17320        1.05500       -0.22650
H          7.00800        1.99820       -2.91850
H          7.08690        1.97000       -1.11520
H          6.72360        3.51280       -1.97910
