17
2427	1
C          0.91970       -0.00090        0.01980
C          2.44440       -0.10920        0.12400
C          2.84720       -0.51450        1.55560
O          4.24370       -0.53680        1.67220
C          2.94520       -1.06690       -0.93760
N          3.60470       -2.12990       -0.62870
N          4.05540       -2.99780       -1.59510
H          0.53460        0.73820        0.75460
H          0.44230       -0.98500        0.21830
H          0.62610        0.34040       -0.99620
H          2.88020        0.89230       -0.08520
H          2.42850       -1.51900        1.79340
H          2.43740        0.23460        2.27030
H          4.43790       -0.81330        2.60530
H          2.73320       -0.84180       -1.98020
H          4.57990       -3.83950       -1.31900
H          3.87710       -2.82070       -2.59560
