17
2450	1
C          3.13250        1.14690        0.48270
N          2.62030        0.55580       -0.75640
C          3.23060       -0.75170       -1.05050
C          2.50910       -1.39210       -2.23710
C          4.70260       -0.60810       -1.37810
C          5.64530       -1.22100       -0.65450
F          6.95560       -1.06760       -0.97850
H          2.58580        2.09050        0.69060
H          4.21450        1.38400        0.39320
H          2.96930        0.45790        1.33880
H          2.78100        1.22180       -1.54910
H          3.08430       -1.42700       -0.17620
H          2.60460       -0.75830       -3.14530
H          1.43060       -1.51580       -2.00160
H          2.93910       -2.39410       -2.45190
H          4.99890        0.00930       -2.22140
H          5.37920       -1.84380        0.19410
