14
2440	1
N          1.15990       -0.97460        1.21180
N          2.49400       -0.69220        1.03590
C          2.94310        0.50920        1.14310
C          4.40960        0.79140        0.94540
O          4.60000        1.65900       -0.14360
C          5.04010        1.36690        2.21850
F          4.44240        2.56560        2.56860
H          0.82830       -1.94490        1.12010
H          0.48230       -0.22940        1.43490
H          2.26920        1.33040        1.37640
H          4.93410       -0.16180        0.71350
H          4.11900        2.50590        0.05130
H          6.12450        1.54060        2.05270
H          4.92410        0.64800        3.05760
