17
2481	1
C          0.68600       -1.84300       -1.09910
C          2.04880       -1.25590       -1.31830
C          3.12300       -1.70950       -0.65300
C          4.49770       -1.12020       -0.87210
O          4.97650       -0.54280        0.31900
C          5.42700       -2.18200       -1.42220
C          6.56960       -2.54740       -0.82610
H         -0.00170       -1.04750       -0.74450
H          0.69960       -2.66140       -0.34760
H          0.30480       -2.24940       -2.05880
H          2.15230       -0.44610       -2.03480
H          3.01370       -2.52040        0.06280
H          4.44380       -0.31190       -1.63330
H          4.90730       -1.22200        1.04120
H          5.15200       -2.66820       -2.35410
H          6.90120       -2.09560        0.10210
H          7.18950       -3.31480       -1.27820
