16
2436	1
C          3.08030        1.24960        0.29850
C          2.63500       -0.16160       -0.08710
C          2.99600       -1.20850        0.98710
O          2.47720       -2.46860        0.64170
C          4.48140       -1.30620        1.23040
N          5.27620       -1.66010        0.28510
O          6.57120       -1.74300        0.50020
H          2.77600        1.96400       -0.49510
H          4.18400        1.29830        0.40870
H          2.60390        1.55590        1.25400
H          3.09860       -0.43700       -1.05950
H          1.53110       -0.15340       -0.21870
H          2.51250       -0.90010        1.93950
H          2.85620       -2.72430       -0.24020
H          4.87650       -1.07240        2.21600
H          7.16380       -2.00940       -0.21530
