13
2386	1
C          0.94400        1.92940        1.07780
C          2.28090        1.89300        1.17250
O          3.02410        0.89020        0.61580
C          4.39630        0.81550        0.75510
C          5.06540       -0.17740        0.16190
C          5.10750        1.75810        1.54630
C          5.70940        2.54550        2.20850
H          0.37930        2.74010        1.52670
H          0.40080        1.15290        0.55300
H          2.81790        2.67030        1.69530
H          4.52790       -0.91240       -0.42820
H          6.13980       -0.28910        0.25150
H          6.23850        3.24870        2.79860
