17
2461	1
C          2.70550       -1.39070        0.37730
C          2.44620        0.02050       -0.14640
N          2.99000        0.19710       -1.47950
N          2.12360        0.46470       -2.53640
C          4.40050        0.13020       -1.69730
N          4.88690        0.30050       -2.87760
N          6.24200        0.25280       -3.10670
H          2.26310       -1.49680        1.39030
H          3.79320       -1.59780        0.44750
H          2.23540       -2.13730       -0.29750
H          2.89330        0.77100        0.54090
H          1.34580        0.18140       -0.16470
H          2.23440       -0.28750       -3.25470
H          2.38180        1.38800       -2.95350
H          5.06620       -0.05330       -0.85730
H          6.60230        0.39570       -4.06050
H          6.90730        0.08530       -2.33650
