10
2389	1
C          1.11910       -0.86020        0.27440
N          2.35360       -0.58150        0.06660
O          3.12380       -1.43180       -0.58150
C          4.43020       -1.17050       -0.81250
O          4.93800       -0.12680       -0.42950
C          5.22660       -2.13920       -1.51500
C          5.87580       -2.96510       -2.10580
H          0.48890       -0.15900        0.80920
H          0.69780       -1.79660       -0.08110
H          6.43440       -3.69830       -2.62530
