14
2439	1
O          3.41630        1.01070        0.79590
C          2.60200       -0.09880        0.52980
C          3.22860       -0.97940       -0.56060
O          3.34250       -0.27540       -1.77210
C          4.57100       -1.51640       -0.13350
N          4.75730       -2.78200       -0.02150
O          5.92810       -3.25220        0.35080
H          2.95090        1.53060        1.50150
H          1.60340        0.24490        0.17810
H          2.47870       -0.70460        1.45600
H          2.53880       -1.83510       -0.73390
H          3.99030        0.46540       -1.63800
H          5.38310       -0.82490        0.07900
H          6.06190       -4.20590        0.43340
