16
2409	1
C          1.45120        0.19330       -0.52800
C          2.81570       -0.42840       -0.23380
C          3.35900        0.00330        1.14740
O          2.46210       -0.36440        2.16470
C          4.74770       -0.50770        1.49690
C          5.47340       -1.32610        0.72100
F          6.70580       -1.72340        1.13160
H          1.10420       -0.13060       -1.53180
H          1.52200        1.30180       -0.51730
H          0.70220       -0.13190        0.22470
H          3.52130       -0.09790       -1.02710
H          2.71860       -1.53530       -0.27550
H          3.43030        1.11240        1.14200
H          2.41480       -1.35680        2.17500
H          5.17500       -0.18570        2.44220
H          5.10600       -1.68640       -0.23200
