17
2459	1
C          2.87130        1.14650       -1.06190
C          2.53520       -0.10870       -0.25780
N          3.01630       -1.30960       -0.92820
C          2.07890       -2.32260       -1.38680
C          4.42100       -1.50130       -1.11160
N          4.86910       -2.55140       -1.70250
O          6.16320       -2.72350       -1.86470
H          2.48190        2.04160       -0.53270
H          2.39890        1.09080       -2.06560
H          3.96780        1.26370       -1.18280
H          1.43160       -0.13720       -0.12910
H          2.98950       -0.04240        0.75440
H          1.02560       -2.04480       -1.17230
H          2.29060       -3.28740       -0.87900
H          2.18040       -2.45700       -2.48460
H          5.12050       -0.75520       -0.74230
H          6.49340       -3.51530       -2.30980
