18
2451	1
C          1.21090        0.56440        0.50260
N          2.64020        0.84280        0.33030
C          2.99660        1.17610       -1.06160
C          2.40680        2.52570       -1.49550
C          4.49640        1.25680       -1.17340
N          5.13110        0.46950       -1.96940
N          6.50000        0.52470       -2.08720
H          1.02870        0.21640        1.54150
H          0.87160       -0.23030       -0.19720
H          0.60670        1.48280        0.36040
H          3.14950       -0.03340        0.59710
H          2.62430        0.38180       -1.74990
H          2.75010        3.33770       -0.81890
H          1.29890        2.50180       -1.49760
H          2.72840        2.76300       -2.53250
H          5.03610        1.98620       -0.57320
H          6.98190       -0.11650       -2.73250
H          7.05520        1.19960       -1.53930
