16
2583	1
C          2.70100        1.52000        0.16170
C          2.41010        0.02170        0.07970
C          2.87870       -0.71730        1.32010
C          1.98210       -1.31820        2.11850
C          4.32210       -0.80560        1.66230
N          5.21490       -0.29560        0.89290
O          6.49080       -0.38890        1.19920
H          2.32750        2.01920       -0.75720
H          3.78760        1.72220        0.24500
H          2.18280        1.96080        1.03990
H          2.90460       -0.41330       -0.81500
H          1.31170       -0.09240       -0.05430
H          0.92020       -1.27890        1.89570
H          2.30070       -1.85660        3.00640
H          4.62790       -1.32610        2.56760
H          7.15730       -0.00280        0.61550
