15
2584	1
N          1.28270        0.25550       -0.07860
C          2.71320       -0.00040        0.07940
C          3.02120       -1.24320        0.90400
C          2.05260       -2.02900        1.41050
C          4.43770       -1.60650        1.15560
N          5.39150       -0.88180        0.69140
O          6.64590       -1.20640        0.91850
H          1.16320        1.08180       -0.70810
H          0.88060        0.51710        0.85120
H          3.18720        0.88270        0.56270
H          3.16550       -0.13230       -0.92750
H          1.00110       -1.81760        1.25520
H          2.30580       -2.91000        1.99350
H          4.67190       -2.49370        1.74040
H          7.35870       -0.65530        0.56860
