16
2521	1
C          1.00490        0.07170       -0.07010
N          2.44770        0.07130       -0.08410
C          3.13130       -0.62980        0.75340
N          4.56220       -0.62250        0.73030
C          5.29470        0.17940       -0.24260
C          5.25700       -1.42730        1.69240
N          6.54300       -1.48160        1.74490
H          0.63280        0.74110       -0.87260
H          0.63210        0.44250        0.90870
H          0.62050       -0.95500       -0.25180
H          2.61300       -1.23910        1.49220
H          4.62590        0.74800       -0.92040
H          5.92570       -0.48030       -0.87510
H          5.93730        0.91610        0.28460
H          4.68750       -2.01530        2.40610
H          7.15260       -0.95510        1.10490
