13
2503	1
O          0.61650       -0.86600       -0.46970
N          1.83390       -0.40650       -0.66220
C          2.76960       -1.19140       -1.05890
C          4.15580       -0.66640       -1.27670
F          5.02070       -1.32660       -0.41930
C          4.54170       -0.85520       -2.72200
C          5.59370       -1.59100       -3.09970
H         -0.08350       -0.27010       -0.17120
H          2.56160       -2.24380       -1.23780
H          4.19670        0.41980       -1.04390
H          3.94030       -0.37150       -3.48680
H          6.22500       -2.09310       -2.37410
H          5.82830       -1.69390       -4.15430
