14
2547	1
C          0.99970       -0.37340        0.02310
N          2.41760       -0.11710       -0.13370
C          3.12480       -0.72940       -1.22500
N          2.49780       -1.46230       -2.07570
O          3.14380       -2.03090       -3.07090
N          3.03880        0.69370        0.80590
C          4.24890        1.13420        0.72240
H          0.44920       -0.01610       -0.87300
H          0.60010        0.15740        0.91400
H          0.82390       -1.46210        0.15610
H          4.19200       -0.60030       -1.34570
H          2.66570       -2.58040       -3.70620
H          4.63800        1.76160        1.51640
H          4.89530        0.92980       -0.11730
