14
2502	1
N          0.88450        1.31820        0.37120
N          2.24900        1.48260        0.33000
C          2.98760        0.75760       -0.43600
C          4.47510        0.95240       -0.45770
F          5.03960        0.01230       -1.30540
C          4.81400        2.36100       -0.88530
C          5.55300        2.63060       -1.96800
H          0.31860        1.91210        0.99310
H          0.41550        0.60830       -0.21200
H          2.54110       -0.00860       -1.06550
H          4.87720        0.78290        0.56360
H          4.44410        3.18920       -0.28720
H          5.94700        1.84000       -2.59800
H          5.76820        3.66150       -2.23010
