12
2543	1
N          0.81470        0.05710        0.07490
N          2.18570        0.15530        0.11650
C          2.84930        0.68170       -0.85310
N          4.27190        0.76960       -0.78070
O          4.90840        0.30410        0.30630
C          5.00090        1.32620       -1.78520
O          4.46070        1.76630       -2.78940
H          0.31050       -0.36870        0.86500
H          0.27980        0.40330       -0.73630
H          2.32230        1.05910       -1.72700
H          5.09590       -0.65000        0.10840
H          6.08170        1.38250       -1.69820
