15
2576	1
C          0.75270       -0.14510       -0.26680
C          2.23070        0.08320       -0.14840
C          3.11210       -0.65390       -0.84480
C          4.57410       -0.43860       -0.73700
O          5.02100        0.42890        0.00080
C          5.50880       -1.29860       -1.54420
O          6.84980       -0.96730       -1.29910
H          0.34230       -0.40560        0.73080
H          0.51190       -0.96670       -0.97510
H          0.26700        0.78590       -0.62580
H          2.57740        0.86610        0.52010
H          2.75280       -1.43430       -1.51040
H          5.27970       -1.20180       -2.62980
H          5.35450       -2.36260       -1.26730
H          7.04630       -0.15680       -1.83820
