17
2582	1
C          2.62410       -1.23880       -0.79090
C          2.42390        0.07730       -0.04010
C          2.94020        1.26680       -0.82930
C          2.08400        2.21050       -1.25210
C          4.38740        1.41890       -1.13090
N          5.24560        0.56630       -0.69150
N          6.58840        0.70220       -0.95450
H          2.21790       -2.07530       -0.18400
H          3.69670       -1.44250       -0.98190
H          2.08350       -1.20970       -1.76100
H          2.94070        0.03700        0.94250
H          1.33380        0.17990        0.15720
H          1.02090        2.13450       -1.04470
H          2.43720        3.07140       -1.81250
H          4.72280        2.27360       -1.71490
H          7.25170        0.00440       -0.59010
H          6.94490        1.49300       -1.51270
