16
2574	2
C          1.01090        0.11140       -0.03700
C          2.52030        0.07380        0.20430
C          3.30290       -0.45410       -0.98100
O          2.71520       -0.79710       -1.99660
C          4.78290       -0.56940       -0.94670
C          5.52030       -0.21950        0.12030
N          6.93130       -0.35170        0.09560
H          0.49960        0.50620        0.86620
H          0.62710       -0.91070       -0.24310
H          0.77360        0.77400       -0.89660
H          2.71760       -0.57530        1.08440
H          2.86380        1.10570        0.43220
H          5.28470       -0.95580       -1.83010
H          5.05030        0.16940        1.01730
H          7.41590       -0.71710       -0.73770
H          7.48480       -0.07980        0.92040
