14
2529	1
N          0.86930       -0.11900       -0.14670
N          2.24700       -0.18150        0.04730
C          3.15540        0.44710       -0.87230
C          2.73530        1.12240       -1.95150
C          2.73450       -0.88570        1.18690
N          3.99400       -0.96950        1.42950
O          4.42490       -1.62020        2.48870
H          0.63630       -0.56230       -1.06470
H          0.57200        0.88350       -0.13800
H          4.22600        0.38160       -0.70090
H          1.68330        1.23120       -2.18880
H          3.46160        1.57920       -2.61590
H          2.02470       -1.35590        1.86340
H          5.37230       -1.67500        2.67130
