14
2551	1
C          0.94430       -0.11940        0.31380
C          2.44030       -0.03310        0.04650
C          2.75270       -0.54410       -1.35130
C          3.29350        0.18460       -2.34080
F          3.51440       -0.39440       -3.55130
C          2.93260        1.32700        0.33130
C          3.33380        2.43930        0.56920
H          0.58110       -1.15700        0.16370
H          0.39090        0.55730       -0.37220
H          0.71990        0.17640        1.36080
H          2.97520       -0.70740        0.76390
H          2.51040       -1.58120       -1.56530
H          3.55080        1.22900       -2.20920
H          3.69740        3.41840        0.73840
