14
2577	2
N          0.69330        0.41750       -0.07410
C          2.06480        0.09430        0.07940
C          3.00430        1.05160        0.00600
C          4.45480        0.77430        0.15860
O          5.24100        1.70630        0.07810
C          4.97690       -0.62090        0.40960
O          6.37390       -0.62760        0.53960
H         -0.01680       -0.32600       -0.01550
H          0.39240        1.38870       -0.24420
H          2.33850       -0.94020        0.25710
H          2.69750        2.07890       -0.17300
H          4.66710       -1.30460       -0.41320
H          4.53990       -1.01100        1.35270
H          6.74620       -0.59380       -0.38040
