11
2564	1
O          0.74380       -0.74500        0.25770
N          2.06390       -1.01000       -0.12610
C          2.85720       -0.66610        0.84130
C          4.35130       -0.83000        0.74270
F          4.97450        0.36030        0.98480
C          4.83260       -1.78300        1.71500
C          5.22930       -2.56850        2.51640
H          0.23400       -1.02220       -0.52730
H          2.46680       -0.24280        1.78420
H          4.61660       -1.13600       -0.27400
H          5.58890       -3.26940        3.23460
