13
2490	1
C          0.83730       -0.02100        0.08620
C          2.34300       -0.07140        0.07030
C          3.03060       -0.49730       -1.00960
C          4.53510       -0.56000       -1.03530
F          4.91640       -1.87190       -1.32370
C          5.06760        0.31850       -2.09020
N          5.48770        1.01070       -2.91920
H          0.50030        1.01780        0.28360
H          0.45280       -0.67110        0.90070
H          0.38980       -0.35910       -0.87200
H          2.85860        0.25060        0.97050
H          2.49910       -0.81280       -1.89880
H          4.98570       -0.28000       -0.07210
