10
2505	1
O          0.88060       -0.17860       -0.05060
N          2.18960       -0.09910       -0.19400
C          2.91830       -1.12260        0.05960
C          4.40760       -1.07570       -0.10970
F          5.00190       -1.42440        1.08640
C          4.78070       -2.03740       -1.15150
N          5.07420       -2.79510       -1.97220
H          0.31900        0.57690       -0.25300
H          2.45130       -2.04490        0.39190
H          4.74720       -0.06650       -0.41100
