13
2676	1
C          0.94220       -0.08120       -0.08840
C          2.40500       -0.07030       -0.07520
C          3.61060       -0.06110       -0.06470
C          5.07740       -0.04930       -0.05140
F          5.53770       -1.31140        0.27720
C          5.61980        0.35790       -1.41730
F          7.00240        0.37170       -1.38530
H          0.56060        0.30680        0.87840
H          0.58120       -1.11950       -0.23850
H          0.57500        0.56100       -0.91530
H          5.42380        0.67370        0.71710
H          5.25890        1.37410       -1.68620
H          5.28550       -0.36150       -2.19580
