17
2679	1
C          1.05440       -0.04050        0.02730
C          2.51710       -0.03290        0.03060
C          3.72290       -0.02610        0.03320
C          5.19170       -0.01810        0.03680
C          5.72040       -0.23980       -1.38020
C          5.67830        1.30470        0.57020
C          6.43400        1.38260        1.67020
H          0.68720       -0.86790        0.66880
H          0.68760       -0.18590       -1.00960
H          0.67870        0.92660        0.42010
H          5.54180       -0.85780        0.67700
H          5.37600        0.56780       -2.06280
H          5.36460       -1.21620       -1.77430
H          6.83150       -0.25180       -1.37340
H          5.40940        2.21930        0.04810
H          6.72170        0.48950        2.21640
H          6.76900        2.35030        2.02910
