15
2602	2
C          1.30800       -0.02500       -0.48110
N          2.73930        0.04190       -0.28100
C          3.27850        0.38000        0.92130
O          2.55100        0.63810        1.87170
C          4.75330        0.43490        1.07720
C          5.33490        0.76280        2.24190
N          6.74690        0.80610        2.35760
H          1.08640       -0.31780       -1.52930
H          0.84990        0.96770       -0.28460
H          0.86370       -0.78100        0.20090
H          3.36070       -0.17380       -1.07570
H          5.37740        0.20160        0.21870
H          4.72910        0.99950        3.11190
H          7.35230        0.58740        1.55240
H          7.17860        1.05930        3.25760
