10
2651	2
O          0.94910       -1.51460        0.57360
N          2.21240       -1.45930        0.93630
C          2.95340       -0.47810        0.56520
C          4.37890       -0.39600        0.96240
O          5.03830        0.55830        0.58230
C          5.03670       -1.42430        1.80160
O          4.42410       -2.39850        2.20860
H          0.39710       -2.25590        0.85640
H          2.53300        0.31190       -0.05280
H          6.08460       -1.31100        2.06090
