14
2587	1
N          0.88590       -0.59650        1.29510
N          2.23670       -0.70090        1.53000
C          3.10020       -0.33740        0.64680
C          4.55260       -0.45830        0.92010
C          5.43150       -0.07130       -0.01960
C          5.01880       -1.01390        2.24880
F          6.39910       -1.06310        2.35090
H          0.21850       -0.89490        2.01980
H          0.52740       -0.22330        0.40270
H          2.76610        0.06200       -0.30870
H          5.08660        0.32610       -0.96990
H          6.50180       -0.14380        0.14190
H          4.62140       -2.04270        2.37600
H          4.62940       -0.37610        3.07000
