10
2660	2
O          0.95670       -0.01970       -0.20940
N          2.27130       -0.00870       -0.28380
C          2.92580        0.94570        0.26930
C          4.38530        1.02920        0.15610
O          5.08640        0.11930        0.56330
C          4.99230        2.19780       -0.42420
C          5.49550        3.17880       -0.91100
H          0.44350       -0.73260       -0.60970
H          2.39120        1.72970        0.78630
H          5.94560        4.03630       -1.33700
