13
2684	1
C          0.99710        0.00030        0.08340
C          2.45990       -0.00090        0.08240
C          3.66570       -0.00250        0.08120
C          5.13570       -0.00510        0.08060
O          5.62560       -1.05180        0.87840
C          5.65670       -0.12140       -1.32350
O          6.34600        0.76550       -1.80160
H          0.62610       -0.61690       -0.76060
H          0.62790        1.04050       -0.02900
H          0.62750       -0.42180        1.04050
H          5.47660        0.95540        0.52330
H          5.30610       -1.90910        0.48920
H          5.42200       -0.99820       -1.91940
