14
2586	1
O          1.14880        0.40740        0.06280
C          2.52110        0.13820        0.16610
C          2.79920       -1.14000        0.93680
C          1.80550       -1.89290        1.44210
C          4.20300       -1.57380        1.14060
N          5.17690       -0.87830        0.67340
O          6.42060       -1.26600        0.85680
H          1.07110        1.25260       -0.45160
H          3.02070        0.97920        0.69630
H          2.95110        0.02890       -0.85440
H          0.76340       -1.61820        1.32000
H          2.02670       -2.80400        1.99060
H          4.41080       -2.48910        1.69120
H          7.14860       -0.73740        0.50370
