15
2653	1
C          0.77370        0.11560        0.16340
C          2.24260        0.37580        0.25330
C          3.12150       -0.48360        0.79420
C          4.55750       -0.28390        0.90880
C          5.33630       -1.22420        1.46550
C          5.17150        0.91500        0.43440
C          5.69500        1.92090        0.03830
H          0.45700        0.12780       -0.88400
H          0.22420        0.89620        0.69830
H          0.49590       -0.85220        0.59260
H          2.57660        1.32700       -0.15440
H          2.74300       -1.42520        1.18990
H          4.93170       -2.15630        1.84540
H          6.40980       -1.08590        1.55690
H          6.15850        2.81280       -0.31300
