13
2618	3
N          1.62390       -0.78810       -0.20580
N          2.78840       -0.04220       -0.40040
C          2.90350        1.25800        0.00480
O          1.97150        1.81930        0.56180
C          4.15450        2.01590       -0.22030
N          5.16190        1.46950       -0.80690
N          6.32790        2.16570       -1.02250
H          1.27050       -1.07470       -1.14660
H          0.87580       -0.23040        0.26440
H          3.58600       -0.50020       -0.86580
H          4.21160        3.04840        0.11670
H          7.11650        1.70380       -1.49630
H          6.42690        3.14660       -0.71890
