15
2604	2
C          1.01680        0.12100        0.15920
C          2.47780        0.11890       -0.18250
C          3.16110       -1.02890       -0.32850
C          4.60390       -1.04740       -0.67520
O          5.20620        0.00220       -0.85690
N          5.25440       -2.23640       -0.79440
N          6.60340       -2.29450       -1.13290
H          0.86470        0.65700        1.11880
H          0.60940       -0.90810        0.25860
H          0.45670        0.64660       -0.64180
H          2.97650        1.07520       -0.31150
H          2.64880       -1.97750       -0.19290
H          4.74420       -3.11770       -0.63410
H          7.15320       -1.76900       -0.41520
H          6.73180       -1.84910       -2.07010
