13
2640	1
C          0.84140        0.06940        0.05120
C          2.26360       -0.02920       -0.41620
C          3.19020        0.86770       -0.03810
C          4.60070        0.77860       -0.49560
O          4.95220       -0.12720       -1.23700
C          5.59790        1.77780       -0.06460
O          5.28400        2.69660        0.67560
H          0.57480       -0.85340        0.60690
H          0.17340        0.16670       -0.82970
H          0.67950        0.94380        0.71740
H          2.53160       -0.85070       -1.07440
H          2.90480        1.68330        0.62070
H          6.62420        1.69720       -0.40860
