12
2639	1
F          0.64860       -0.37670        0.31390
C          1.96970       -0.39810       -0.00140
C          2.79200       -1.24660        0.62730
C          4.24090       -1.31170        0.32260
O          4.72680       -0.57710       -0.52680
C          5.09600       -2.27460        1.05600
C          6.40960       -2.37940        0.82510
H          2.34020        0.27920       -0.76480
H          2.38270       -1.90830        1.38530
H          4.64410       -2.91740        1.80590
H          6.90360       -1.75730        0.08500
H          7.00060       -3.09770        1.38410
