14
2628	1
C          1.44760        0.29340       -0.64690
O          2.79430        0.56800       -0.51060
C          3.35810        1.81060       -0.49640
C          2.61650        2.93330       -0.61990
C          4.83020        1.89100       -0.33920
N          5.44140        3.02180       -0.31570
O          6.74850        3.06970       -0.17520
H          1.29860       -0.80550       -0.62130
H          1.07280        0.67670       -1.62000
H          0.87530        0.74560        0.19100
H          1.53950        2.89360       -0.73570
H          3.07970        3.91490       -0.60680
H          5.39740        0.96870       -0.24230
H          7.20190        3.92310       -0.15840
