12
2650	2
O          0.73290        0.70130        1.45700
N          2.01450        0.98870        1.53090
C          2.83110        0.55300        0.64020
C          4.27270        0.86930        0.71280
O          5.01660        0.43550       -0.15450
C          4.81920        1.70000        1.81740
C          6.12050        1.99900        1.90340
H          0.12380        1.03230        2.13050
H          2.46270       -0.05740       -0.18090
H          4.14820        2.07960        2.58200
H          6.83120        1.64330        1.16380
H          6.48140        2.60870        2.72550
