12
2626	1
C          1.61030       -0.74900       -0.45770
O          2.92640       -0.33800       -0.42100
C          3.34860        0.74850        0.27490
O          2.55360        1.42460        0.91570
C          4.78370        1.10400        0.24780
C          5.27010        2.16060        0.90960
F          6.59750        2.44360        0.85160
H          1.53010       -1.65580       -1.09170
H          0.97120        0.04880       -0.89330
H          1.25690       -0.99680        0.56620
H          5.46330        0.48450       -0.32980
H          4.61980        2.80170        1.49690
