18
2662	1
C          0.96520       -0.07830       -0.06850
C          2.42810       -0.07960       -0.06810
C          3.63390       -0.07530       -0.07060
C          5.10500       -0.05900       -0.07870
C          5.63540       -1.00350        1.00580
C          5.61720       -0.45130       -1.47530
N          7.07440       -0.37710       -1.53840
H          0.59710        0.61120       -0.85600
H          0.59510        0.26050        0.92100
H          0.59330       -1.10350       -0.27180
H          5.43680        0.97640        0.15250
H          5.31090       -2.04880        0.81110
H          5.25770       -0.69190        2.00350
H          6.74510       -0.97500        1.03720
H          5.18610        0.23580       -2.23850
H          5.29290       -1.48780       -1.71870
H          7.37280        0.61440       -1.38930
H          7.38010       -0.65950       -2.49750
