15
2680	1
C          0.97550       -0.08500        0.02710
C          2.43820       -0.09180        0.01520
C          3.64400       -0.09810        0.00480
C          5.11260       -0.10700       -0.00720
C          5.62800       -1.51900       -0.28380
C          5.60610        0.84230       -1.05980
O          6.30440        1.79530       -0.75230
H          0.60570        0.82620       -0.48640
H          0.61410       -0.09080        1.07600
H          0.59720       -0.98530       -0.49930
H          5.47510        0.21620        0.99330
H          5.27540       -1.88270       -1.27390
H          5.26970       -2.21860        0.50190
H          6.73910       -1.52680       -0.27560
H          5.34410        0.68420       -2.10190
