14
2696	1
C          0.94540       -0.06250       -0.05290
C          2.40820       -0.07140       -0.06110
C          3.61380       -0.07840       -0.06780
C          5.05750       -0.08510       -0.07630
C          5.71890       -1.14640        0.40390
C          5.79390        1.10390       -0.62870
F          5.46240        2.23430        0.09560
H          0.58370        0.89980        0.36410
H          0.57390       -0.89970        0.57330
H          0.56890       -0.18100       -1.08970
H          5.17950       -2.00210        0.80060
H          6.80440       -1.17220        0.40620
H          5.50660        1.25540       -1.69040
H          6.89570        0.96550       -0.58370
