15
2708	1
C          0.91480        0.10080       -0.03880
C          2.37750        0.08990       -0.03620
C          3.58320        0.08180       -0.03430
C          5.03070        0.07260       -0.03210
C          5.67300       -1.06260        0.26990
C          5.80920        1.29840       -0.35830
C          5.22840        2.46440       -0.66850
H          0.53750       -0.71360        0.61330
H          0.54550       -0.05290       -1.07360
H          0.55160        1.07760        0.34190
H          5.11970       -1.96650        0.51040
H          6.75850       -1.10200        0.28020
H          6.89510        1.25170       -0.34610
H          4.14930        2.57290       -0.69720
H          5.84390        3.32810       -0.89840
