15
2689	1
C          0.95510       -0.03700       -0.09210
C          2.41380       -0.04220       -0.08920
C          3.61720       -0.04760       -0.08630
C          5.08050       -0.05030       -0.08460
C          5.60830       -1.35150       -0.68620
C          5.55750        1.10250       -0.85380
C          5.95420        2.04890       -1.48510
H          0.59100        1.00150        0.04460
H          0.58810       -0.67410        0.73780
H          0.58990       -0.43680       -1.05970
H          5.43720        0.04420        0.96200
H          5.26550       -1.47510       -1.73730
H          5.24860       -2.21830       -0.09110
H          6.71910       -1.35470       -0.67020
H          6.30830        2.87150       -2.04670
