13
2698	1
C          0.99170       -0.02410        0.14490
C          2.45330       -0.04460        0.08890
C          3.65780       -0.06250        0.04240
C          5.09730       -0.08720       -0.01410
O          5.72080        0.96120        0.03390
C          5.82770       -1.39400       -0.12120
O          5.47740       -2.05240       -1.30830
H          0.60000        0.63680       -0.65550
H          0.66450        0.35850        1.13350
H          0.60160       -1.05240       -0.00100
H          5.60690       -2.03280        0.76440
H          6.92520       -1.22130       -0.12840
H          4.63360       -2.54350       -1.12720
