16
2738	1
C          1.65110       -0.11720        0.54650
O          2.97280        0.36440        0.46120
C          3.34180        0.48110       -0.89810
C          4.75430        0.99310       -1.05570
F          5.23050        1.15010       -2.32090
C          5.54010        1.29280       -0.00130
C          6.94390        1.80150       -0.16810
H          1.37930       -0.20110        1.61880
H          1.56190       -1.13590        0.10770
H          0.93030        0.59230        0.08280
H          2.67490        1.20350       -1.42070
H          3.29970       -0.51280       -1.39860
H          5.17190        1.17190        1.01230
H          7.24350        1.89680       -1.23270
H          7.64570        1.10250        0.33220
H          7.02810        2.79930        0.31030
