13
2711	1
C          1.02720       -0.07510       -0.01600
C          2.48990       -0.08680       -0.00730
C          3.69550       -0.09520       -0.00110
C          5.13960       -0.10460        0.00570
O          5.72270       -0.93980        0.67740
C          5.92990        0.87240       -0.78100
C          5.36510        1.81820       -1.54190
H          0.64710       -1.04390        0.36870
H          0.66480        0.07870       -1.05320
H          0.66000        0.74890        0.62980
H          7.01400        0.81810       -0.73780
H          4.28730        1.91630       -1.62020
H          5.99220        2.50810       -2.09740
