14
2690	1
C          0.91990       -0.04610       -0.07660
C          2.37730       -0.03780       -0.07750
C          3.57960       -0.03200       -0.07610
C          5.04390       -0.04680       -0.06670
N          5.52810       -1.22820        0.64160
C          5.52640       -0.06320       -1.44930
C          5.92520       -0.07670       -2.58560
H          0.55700       -0.30100        0.94000
H          0.55740       -0.80040       -0.80440
H          0.55430        0.96000       -0.36460
H          5.41450        0.87090        0.43780
H          5.17970       -2.09270        0.16380
H          5.14050       -1.22240        1.61370
H          6.27920       -0.09640       -3.58100
