16
2758	2
C          4.76650        1.06410       -0.48750
O          5.72250        0.19510       -0.02210
N          5.37200       -0.91220        0.60170
C          6.25440       -1.72930        1.06910
C          7.72540       -1.43760        0.91920
N          5.83620       -2.91840        1.73580
N          4.48810       -3.21880        1.90050
H          5.26350        1.92300       -0.98350
H          4.15310        1.44020        0.35870
H          4.11170        0.55020       -1.22300
H          7.98730       -1.36650       -0.15730
H          8.34000       -2.23950        1.37880
H          7.96970       -0.47730        1.42030
H          6.54090       -3.57220        2.10600
H          4.04440       -3.28160        0.95590
H          4.04110       -2.44670        2.44550
