17
2762	1
C          1.35870       -1.07200        0.32490
C          2.59330       -1.71890       -0.28350
O          3.66640       -0.85510       -0.18000
C          4.91590       -1.14220       -0.63290
C          5.98980       -0.10360       -0.45200
N          5.15440       -2.28380       -1.20140
N          6.39190       -2.64920       -1.68590
H          0.49400       -1.76400        0.24330
H          1.11830       -0.13020       -0.21260
H          1.53760       -0.84400        1.39720
H          2.39390       -1.94810       -1.35340
H          2.81430       -2.66360        0.26020
H          5.57280        0.79250        0.05420
H          6.38930        0.20850       -1.43980
H          6.81040       -0.50850        0.17680
H          6.50870       -3.57250       -2.12580
H          7.20960       -2.02680       -1.62280
