13
2769	1
C          1.14160        0.16510        0.17620
C          2.63560        0.01210        0.13640
C          3.35320        0.47190       -1.08510
C          3.29550        1.92020       -1.30000
N          3.25140        3.06370       -1.47170
C          3.31550       -0.53200        1.16010
F          4.67010       -0.66340        1.11160
H          0.70000       -0.38230       -0.68480
H          0.86930        1.23790        0.08560
H          0.70680       -0.24000        1.11170
H          3.01400       -0.02870       -2.02450
H          4.41830        0.16480       -1.21410
H          2.79890       -0.86210        2.05400
