17
2733	1
C          1.51400        0.13160       -0.22280
N          2.95640       -0.01910       -0.41720
C          3.69640        0.95160        0.39590
C          5.18370        0.74320        0.22580
C          5.77850       -0.58910        0.60990
C          5.95530        1.73610       -0.25420
F          7.29620        1.57410       -0.41330
H          0.97960       -0.62110       -0.83980
H          1.17720        1.14550       -0.53220
H          1.24600       -0.04270        0.84150
H          3.17140        0.14880       -1.42840
H          3.45070        0.81080        1.47140
H          3.40020        1.98650        0.10750
H          5.31420       -1.39410        0.00300
H          5.57680       -0.78650        1.68340
H          6.87640       -0.63100        0.45160
H          5.51650        2.69160       -0.52520
