12
2731	1
F          2.66410        1.25640        0.23690
C          2.24190       -0.01150       -0.12260
C          2.89060       -1.05980        0.77710
C          4.39040       -1.03660        0.63360
F          4.94520       -1.28050       -0.58410
C          5.18500       -0.78510        1.68010
F          6.53460       -0.77210        1.52350
H          2.50270       -0.19780       -1.18640
H          1.13790       -0.06500       -0.01610
H          2.52240       -2.06710        0.48820
H          2.58200       -0.86700        1.82830
H          4.76610       -0.58880        2.66240
