16
2766	1
C          0.76620       -0.08950        0.20200
C          2.26510        0.07580        0.15230
C          2.95660        0.86770       -0.70870
C          2.30650        1.78830       -1.71960
C          4.46850        0.87630       -0.63960
C          5.06330        0.35480       -1.87870
N          5.52840       -0.05680       -2.85010
H          0.52710       -1.17250        0.13800
H          0.20610        0.40050       -0.61160
H          0.39180        0.29090        1.17360
H          2.82280       -0.52010        0.87000
H          1.21780        1.91290       -1.60440
H          2.52610        1.44190       -2.74940
H          2.73670        2.80500       -1.59340
H          4.85080        0.26110        0.19800
H          4.81670        1.92100       -0.47700
