13
2772	1
C          0.82590       -0.02180        0.00090
C          2.32660        0.08070        0.03770
C          3.04810        0.43330       -1.04890
F          2.42220        0.70920       -2.22130
C          4.54950        0.54170       -0.99660
C          5.17270       -0.48950       -1.83680
N          5.66650       -1.30010       -2.50260
H          0.51960       -1.05470        0.26580
H          0.39960        0.22330       -0.99370
H          0.39420        0.67640        0.74700
H          2.82120       -0.14920        0.97550
H          4.94140        0.44120        0.03370
H          4.84510        1.54590       -1.37590
