17
2784	2
C          1.00880        0.13060       -0.03350
N          2.42470       -0.13360        0.09700
C          2.94540       -1.10420        0.78070
C          2.08650       -2.09990        1.54300
N          4.36920       -1.22190        0.80430
C          5.05140       -2.24860        1.52180
C          6.38540       -2.31400        1.51130
H          0.86680        1.02300       -0.67690
H          0.56240        0.34320        0.96130
H          0.49790       -0.73080       -0.51430
H          0.99750       -1.92090        1.46020
H          2.34450       -2.05800        2.62170
H          2.28070       -3.12290        1.15870
H          4.92520       -0.53040        0.27670
H          4.50100       -2.99260        2.08730
H          6.97390       -1.58880        0.95780
H          6.89460       -3.09930        2.06060
