16
2694	1
C          0.90400       -0.10150       -0.07400
C          2.36670       -0.08410       -0.05250
C          3.57200       -0.06800       -0.03330
C          5.01660       -0.04740       -0.00760
C          5.66390        1.09030       -0.29420
C          5.77450       -1.30290        0.35240
N          5.49670       -2.36390       -0.61140
H          0.51820        0.89070        0.23870
H          0.53300       -0.87910        0.62480
H          0.55130       -0.32820       -1.10110
H          5.11320        1.99180       -0.54870
H          6.74870        1.13420       -0.27820
H          5.47800       -1.63160        1.37300
H          6.87080       -1.11300        0.36250
H          4.48720       -2.63160       -0.55440
H          6.05810       -3.20570       -0.34730
