15
2823	2
C          0.98450        0.07380        0.10930
C          2.48470       -0.11520        0.06000
C          3.14500       -1.11220        0.71020
N          2.51120       -2.09910        1.51540
C          3.24420        0.86910       -0.75910
N          4.52330        0.80470       -0.87230
O          5.17280        1.68590       -1.60180
H          0.42390       -0.65500        0.71550
H          0.57970        0.01830       -0.92320
H          0.76100        1.08040        0.52120
H          4.22560       -1.17290        0.61920
H          1.49820       -2.13680        1.67030
H          3.09230       -2.81730        1.97050
H          2.69990        1.65900       -1.27160
H          6.13440        1.63160       -1.68260
