13
2827	1
C          0.99530        0.00880        0.00800
C          2.49350       -0.06470       -0.06920
C          3.21270        0.74410       -0.86530
F          2.59550        1.67540       -1.64390
C          4.68300        0.63350       -0.90650
N          5.36390        1.40930       -1.66940
O          6.67550        1.31770       -1.71250
H          0.69540        0.23290        1.05260
H          0.56740       -0.97180       -0.28690
H          0.57030        0.79120       -0.65510
H          2.99930       -0.80350        0.54690
H          5.19120       -0.10540       -0.29050
H          7.18240        1.90480       -2.28910
