14
2795	2
C          0.70330        0.96560       -1.03920
C          2.12680        0.55180       -0.79730
N          2.47980       -0.12750        0.40780
N          1.51840       -0.40670        1.35390
C          1.81190       -1.01710        2.44650
N          3.01700        0.81950       -1.69160
O          4.27910        0.48030       -1.53220
H          0.37530        1.65960       -0.23730
H          0.04900        0.06890       -1.03830
H          0.59850        1.48030       -2.01850
H          3.45880       -0.41080        0.57140
H          1.03370       -1.22330        3.17290
H          2.83060       -1.33140        2.65550
H          4.92690        0.69240       -2.21730
