14
2879	1
N          1.54620        0.79180        0.70400
C          2.55700        0.02270       -0.01160
C          2.98390       -1.15620        0.82260
C          4.26140       -1.33720        1.21010
F          5.21740       -0.43850        0.85080
C          4.68170       -2.51920        2.04380
F          3.62540       -3.36170        2.34580
H          1.23450        1.58070        0.09310
H          1.97700        1.20530        1.56270
H          3.41010        0.68680       -0.27220
H          2.12100       -0.36130       -0.95850
H          2.21990       -1.87240        1.10870
H          5.12610       -2.15310        2.99230
H          5.44950       -3.09730        1.48970
