20
2854	1
C          1.86870       -0.33710       -1.28010
C          2.68610        0.28490       -0.15370
C          3.18470       -0.79290        0.78490
C          4.48170       -1.08170        1.07170
C          5.67170       -0.35510        0.47800
C          4.78090       -2.19780        2.05120
N          5.56570       -3.24370        1.40430
H          1.47590        0.46360       -1.94180
H          1.00970       -0.90910       -0.86900
H          2.50520       -1.01810       -1.88470
H          2.03690        0.97460        0.42610
H          3.47550        0.89880       -0.61450
H          2.41050       -1.38290        1.26970
H          5.44450        0.45350       -0.23290
H          6.31150       -1.08270       -0.06290
H          6.26760        0.09260        1.30040
H          3.85190       -2.64850        2.46810
H          5.36000       -1.77790        2.90210
H          4.99710       -3.67150        0.63720
H          5.76930       -3.99050        2.10770
