21
2850	1
C          2.55030        0.47250        1.48950
C          2.59850       -0.28370        0.15940
C          3.13240        0.57160       -0.96530
C          4.42040        0.98270       -1.09070
C          5.51160        0.57470       -0.12200
C          4.80350        1.85500       -2.27210
C          5.33380        3.21760       -1.83150
H          2.11270       -0.18450        2.27030
H          1.90870        1.37380        1.38800
H          3.55140        0.79650        1.83280
H          1.55070       -0.56090       -0.08690
H          3.18260       -1.22460        0.24390
H          2.41480        0.86520       -1.72700
H          5.18280       -0.13240        0.66100
H          5.93400        1.46810        0.38060
H          6.32000        0.06450       -0.68610
H          3.93030        2.03540       -2.93710
H          5.57960        1.33340       -2.87200
H          4.56170        3.75650       -1.24200
H          5.58490        3.82370       -2.72740
H          6.25460        3.11060       -1.22180
