13
2817	1
C          0.81260        0.07430       -0.04990
C          2.31100        0.08130       -0.15520
C          3.07860        0.92090        0.56030
F          2.50720        1.80940        1.42070
C          4.55210        0.88450        0.41690
C          5.34080        1.70710        1.11510
F          6.68900        1.64730        0.95940
H          0.47600       -0.93050        0.27950
H          0.37700        0.29080       -1.04730
H          0.43010        0.82670        0.67120
H          2.77590       -0.62400       -0.83910
H          5.00760        0.17550       -0.26960
H          4.92140        2.42810        1.80990
