15
2865	1
C          1.09610        0.08410       -0.03430
C          2.59620        0.14140       -0.17850
C          3.13240        0.97440       -1.33090
F          4.50860        1.00850       -1.43830
C          3.36620       -0.53910        0.70950
C          4.86830       -0.57630        0.69330
F          5.32530       -1.36100        1.73630
H          0.69900        1.11010        0.11510
H          0.77140       -0.54000        0.82580
H          0.65140       -0.34320       -0.95750
H          2.77440        2.01870       -1.21470
H          2.72690        0.57160       -2.28270
H          2.87590       -1.10480        1.49780
H          5.27730        0.44760        0.82260
H          5.22940       -1.01810       -0.25910
