14
2834	1
C          1.10570        0.10120       -0.01950
C          2.60330       -0.01090       -0.00920
C          3.29610       -0.14500       -1.33720
C          4.52250       -0.64820       -1.54290
F          5.00170       -0.73970       -2.81100
N          3.19130        0.01690        1.14810
N          4.55050        0.10000        1.34220
H          0.69430        0.06480       -1.05040
H          0.80100        1.06230        0.44570
H          0.66620       -0.73750        0.56050
H          2.72910        0.13370       -2.22100
H          5.13960       -1.02930       -0.74330
H          4.92440       -0.01750        2.29400
H          5.15120        0.57590        0.65530
