16
2864	1
C          0.89940        0.01420       -0.02830
C          2.39860        0.16500        0.01400
C          2.97440        1.32750        0.78620
F          3.76010        0.86700        1.82790
C          3.18000       -0.73210       -0.63350
C          4.68830       -0.67880       -0.67060
O          5.21850       -1.86030       -0.13800
H          0.44930        0.92020       -0.48560
H          0.51030       -0.10080        1.00510
H          0.57850       -0.86950       -0.62060
H          2.16200        1.95020        1.21760
H          3.57710        1.97400        0.11420
H          2.70880       -1.55080       -1.17090
H          5.13070        0.19710       -0.15110
H          5.00640       -0.59870       -1.73080
H          5.12790       -1.79080        0.84840
