16
2787	2
C          0.82440       -0.27740       -0.02830
C          2.32310       -0.19930        0.09780
N          2.95850        1.05170        0.41900
C          2.21160        2.25000        0.62840
C          2.83070        3.39630        0.92530
N          2.99600       -1.29350       -0.09390
N          4.36810       -1.41150       -0.02010
H          0.47780        0.40000       -0.83660
H          0.34930        0.01090        0.93270
H          0.49850       -1.31000       -0.27900
H          3.97860        1.11450        0.50670
H          1.13000        2.25370        0.55070
H          3.91200        3.43930        1.01310
H          2.25180        4.30070        1.08220
H          4.79920       -2.33060       -0.19100
H          4.98950       -0.62580        0.19850
