17
2832	1
C          0.88420       -0.73170        1.94730
C          2.37070       -0.93020        1.90200
C          3.11610       -0.42270        0.90420
C          4.59060       -0.60690        0.83910
C          5.34510       -0.00030       -0.32000
N          5.19440       -1.27830        1.76930
N          6.55500       -1.49860        1.78980
H          0.38310       -1.72180        1.93650
H          0.51450       -0.13790        1.08390
H          0.61510       -0.20050        2.88370
H          2.83470       -1.49910        2.70220
H          2.62930        0.14320        0.11460
H          4.66150        0.53500       -1.01210
H          5.85860       -0.79800       -0.89680
H          6.09170        0.73080        0.05530
H          6.96620       -2.04180        2.56150
H          7.17930       -1.13650        1.05550
