17
2860	1
C          0.98260        0.08140        0.06690
C          2.48260       -0.07920        0.00770
C          3.02880       -1.04750       -1.02550
O          2.52350       -2.33390       -0.79610
C          3.25390        0.64240        0.86170
C          4.76170        0.60830        0.95290
O          5.27620        1.89120        0.72890
H          0.60970        0.43770       -0.91620
H          0.66020        0.80940        0.84190
H          0.51030       -0.89610        0.29830
H          4.12850       -1.10280       -1.10710
H          2.68690       -0.71250       -2.02720
H          3.01410       -2.69280       -0.01080
H          2.76020        1.31480        1.55850
H          5.27720       -0.11220        0.29330
H          5.03130        0.30200        1.98490
H          5.22490        2.04820       -0.25030
