15
2800	1
C          0.79180       -0.08600        0.49560
C          2.24680        0.28920        0.39030
O          2.91230        0.23720       -0.79880
C          2.36910       -0.14050       -1.98290
C          3.12300       -0.15330       -3.08100
N          2.86500        0.66660        1.45860
N          4.19400        1.02700        1.45280
H          0.65230       -1.14200        0.18320
H          0.18400        0.57850       -0.15340
H          0.42940        0.01990        1.54080
H          1.32690       -0.43490       -2.05820
H          4.16840        0.13620       -3.03420
H          2.69540       -0.45430       -4.03200
H          4.64330        1.32130        2.33100
H          4.75400        1.01020        0.58730
