14
2913	1
C          1.19350       -0.02290        0.06680
C          2.69590        0.00160        0.21790
C          3.20830       -0.00820        1.64990
F          4.57510        0.01380        1.80700
C          3.45650        0.02990       -0.91180
C          4.93600        0.05720       -0.99940
O          5.46380        0.08100       -2.09930
H          0.78800       -0.93970        0.54390
H          0.86390       -0.01470       -0.99430
H          0.75610        0.86630        0.56770
H          2.82810       -0.92010        2.15630
H          2.79660        0.87630        2.17990
H          2.93970        0.03340       -1.86860
H          5.57840        0.05730       -0.13720
