14
2949	1
C          0.86790        0.05200        0.19490
C          2.36400        0.02440       -0.07500
C          2.79330        1.20380       -0.89630
F          2.65600        2.43220       -0.34210
C          3.31360        1.10080       -2.12740
C          3.71740        2.23840       -2.87590
C          4.06030        3.19620       -3.51310
H          0.57830       -0.80850        0.80670
H          0.29670        0.01100       -0.73880
H          0.57770        0.96110        0.73260
H          2.62390       -0.91770       -0.57160
H          2.90680        0.04350        0.87680
H          3.43930        0.12810       -2.59110
H          4.36220        4.05100       -4.07220
