14
2966	1
O          1.68990       -0.38510       -1.06070
C          2.95400       -0.35960       -0.46100
C          3.03760        0.83520        0.44770
C          3.95700        1.80250        0.28550
F          4.86130        1.72820       -0.73080
C          3.99160        2.95660        1.21260
C          4.89320        3.93320        1.07650
H          1.65060       -1.22630       -1.58600
H          3.73700       -0.33210       -1.25050
H          3.09520       -1.27070        0.16130
H          2.32150        0.90560        1.26260
H          3.27080        3.01730        2.02380
H          5.63060        3.91120        0.28000
H          4.89540        4.76730        1.77060
