15
2916	1
C          2.22580       -1.34240        0.34620
C          2.61460        0.06950       -0.08810
C          3.08430        0.09710       -1.52500
N          2.12590       -0.06540       -2.56760
C          4.39440        0.28820       -1.79500
C          4.92080        0.31960       -3.13970
N          5.35300        0.34630       -4.21300
H          1.88520       -1.32070        1.40340
H          3.11060       -2.01370        0.28280
H          1.41120       -1.75450       -0.28430
H          3.41610        0.41480        0.59970
H          1.75250        0.76190        0.02140
H          1.12490       -0.14510       -2.33570
H          2.39540       -0.02700       -3.56110
H          5.09960        0.41220       -0.97930
