14
2934	1
C          1.16280       -0.67590        0.06170
N          2.51130       -0.14920        0.17550
C          3.09260        0.71200       -0.73530
N          2.26220        1.52420       -1.46660
C          4.43610        0.74020       -0.85800
C          5.13910        1.58460       -1.73520
N          5.71460        2.27590       -2.45340
H          0.96370       -1.35170        0.89920
H          1.04400       -1.24030       -0.86840
H          0.41690        0.12400        0.09760
H          3.15900       -0.82970        0.56540
H          1.45450        1.80530       -0.91940
H          2.71470        2.32870       -1.89430
H          5.04790        0.08590       -0.24900
