13
2969	1
C          0.89540        0.24970       -0.22730
C          2.38690       -0.03770       -0.13990
C          2.76510       -0.53000        1.23350
C          3.28310       -1.75330        1.44540
F          3.47970       -2.60360        0.42550
C          3.63950       -2.19030        2.77450
N          3.92370       -2.53960        3.83170
H          0.64130        0.63100       -1.22720
H          0.58860        1.00410        0.51070
H          0.30660       -0.66230       -0.05240
H          2.94690        0.88890       -0.34280
H          2.66180       -0.75660       -0.92180
H          2.61020        0.14910        2.05420
