15
2933	3
C          3.30240       -1.30820        0.13940
N          2.59190       -0.11520        0.54940
C          3.23100        1.14340        0.80270
N          2.40910        2.23870        1.20100
C          4.57890        1.27910        0.66490
C          5.33440        2.53150        0.90150
O          6.54480        2.53780        0.74680
H          2.58580       -2.14660        0.00830
H          4.04120       -1.59780        0.91620
H          3.81590       -1.13220       -0.82930
H          1.56920       -0.17880        0.66450
H          1.39250        2.10220        1.29590
H          2.78230        3.17310        1.40210
H          5.17140        0.42400        0.36020
H          4.85360        3.44880        1.20830
