17
2958	1
C          1.72290        1.22060        0.31470
C          2.63130        0.12320       -0.22850
C          3.15510       -0.72520        0.90980
C          4.45670       -0.91660        1.24700
C          5.63020       -0.29020        0.52030
C          4.75490       -1.79590        2.40540
O          5.90810       -2.00090        2.75090
H          1.30880        1.81410       -0.52770
H          2.29820        1.89940        0.98020
H          0.87770        0.77960        0.88560
H          3.40860        0.60470       -0.84240
H          2.04160       -0.53150       -0.90470
H          2.39560       -1.22610        1.50630
H          5.38350        0.36090       -0.33180
H          6.28780       -1.09650        0.13280
H          6.21190        0.32580        1.23790
H          3.94770       -2.26710        2.95860
