16
2893	1
C          3.13290       -0.82060        0.14650
O          2.52670        0.38790        0.42860
C          3.16440        1.56220        0.70980
C          2.28500        2.75680        0.98680
C          4.52250        1.64480        0.73740
C          5.27170        2.91290        1.04140
F          6.63300        2.67480        0.99320
H          2.34880       -1.58320       -0.03820
H          3.74960       -1.15320        1.00860
H          3.75990       -0.73370       -0.76640
H          1.64340        2.94560        0.10100
H          2.83510        3.69110        1.21080
H          1.63300        2.53090        1.85620
H          5.12090        0.76380        0.53270
H          5.01190        3.27410        2.05870
H          5.02240        3.69190        0.29040
