18
3060	1
C          1.05740       -0.24240       -0.37960
C          2.57480       -0.44410       -0.35540
F          3.16470        0.80650       -0.44670
C          3.08230       -1.15680        0.92520
C          2.48720       -2.56930        1.07580
C          4.62410       -1.23990        0.89950
O          5.11970       -1.83910        2.06710
H          0.77400        0.30940       -1.30080
H          0.73290        0.34990        0.50220
H          0.51710       -1.20980       -0.39460
H          2.86880       -1.03240       -1.25220
H          2.78330       -0.55100        1.80930
H          2.75580       -3.20210        0.20280
H          1.38390       -2.53430        1.17220
H          2.86930       -3.05520        1.99830
H          5.07750       -0.22910        0.78440
H          4.95840       -1.84100        0.02660
H          5.04970       -1.15940        2.78750
