10
3004	1
N          0.94170        0.13460       -0.00230
C          2.34900        0.01850       -0.04570
C          2.98400       -1.09120       -0.46070
C          2.27100       -2.25310       -0.89540
N          1.70570       -3.19580       -1.24800
C          3.09840        1.14800        0.37680
N          3.66640        2.08680        0.72790
H          0.31960       -0.62660       -0.28690
H          0.53350        1.02060        0.32910
H          4.07120       -1.13430       -0.47680
