11
3009	1
F          1.09760        0.36690        0.24310
C          2.36430        0.00290       -0.05940
C          2.93480        0.36540       -1.22070
C          2.20450        1.17260       -2.20940
C          2.76410        1.53920       -3.37020
C          3.08350       -0.78220        0.89540
N          3.66910       -1.41620        1.66270
H          3.94730        0.06940       -1.45270
H          1.19050        1.47470       -1.98810
H          3.77990        1.26110       -3.63980
H          2.19690        2.13400       -4.07540
