14
3065	1
C          0.91910        0.04990        0.07250
C          2.45300        0.03350        0.13140
C          2.97330        1.29410        0.84110
F          2.52500        1.34810        2.15010
C          2.95830       -1.24130        0.82880
F          2.51420       -2.36430        0.15280
F          4.34200       -1.26020        0.84690
H          0.56610        0.96020       -0.45760
H          0.48340        0.03990        1.09460
H          0.54290       -0.83570       -0.48240
H          2.84050        0.03950       -0.91140
H          2.62560        2.20280        0.30470
H          4.08390        1.30500        0.84130
H          2.58680       -1.28600        1.87510
