16
3082	1
C          1.80850        0.49830       -1.20660
C          3.19910       -0.11530       -1.03800
C          3.17900       -1.47370       -0.29490
N          2.44030       -2.49540       -1.04290
C          4.60640       -1.97780       -0.03070
F          5.28840       -2.17510       -1.21910
F          5.30330       -1.06970        0.74730
H          1.89920        1.48450       -1.70870
H          1.33330        0.65010       -0.21400
H          1.15620       -0.14220       -1.83380
H          3.80760        0.60750       -0.45230
H          3.66960       -0.23360       -2.03840
H          2.69080       -1.33490        0.69570
H          2.82280       -2.58940       -2.01200
H          1.42580       -2.25470       -1.09590
H          4.56270       -2.94240        0.51860
