9
3012	1
F          0.82410        0.06150       -0.15690
C          2.18050       -0.02210       -0.10260
C          2.79220       -1.15300        0.63250
O          2.07990       -1.98360        1.17240
C          2.90960        0.92570       -0.71860
C          4.31560        0.92570       -0.71860
N          5.46660        0.92570       -0.71860
H          3.87010       -1.25810        0.70080
H          2.39760        1.72810       -1.24010
