16
3081	1
C          2.99670        0.87710        1.23650
C          2.58150        0.04150        0.02120
F          1.19970       -0.04790       -0.00480
C          3.08550        0.58260       -1.34450
N          2.53940        1.90770       -1.65010
C          4.61690        0.62120       -1.44820
F          5.14960       -0.63770       -1.23480
H          2.59720        0.40540        2.15920
H          2.58780        1.90610        1.17590
H          4.10060        0.92170        1.33170
H          2.98080       -0.98630        0.16250
H          2.72470       -0.12210       -2.12670
H          2.87620        2.62140       -0.96500
H          1.49430        1.88070       -1.63680
H          5.05200        1.33210       -0.71580
H          4.90930        0.95990       -2.46500
