22
3066	1
C          1.00010       -0.12400       -0.03950
C          2.51900       -0.20830       -0.19340
C          3.19240       -1.09010        0.88950
N          2.73460       -2.48310        0.81910
C          4.74710       -1.01570        0.82250
C          5.37380       -1.78130        1.99860
C          5.33770       -1.53340       -0.50120
H          0.58830        0.55340       -0.81730
H          0.73580        0.28250        0.95980
H          0.52700       -1.11840       -0.17120
H          2.92110        0.82520       -0.11150
H          2.74440       -0.59320       -1.20980
H          2.90060       -0.67570        1.88160
H          2.83210       -2.85480       -0.15310
H          1.73310       -2.55340        1.10780
H          5.04330        0.05190        0.92900
H          5.13030       -2.86400        1.94420
H          4.99980       -1.37880        2.96410
H          6.47910       -1.66860        1.98610
H          5.09680       -2.60520       -0.65910
H          6.44340       -1.42640       -0.48810
H          4.96550       -0.94510       -1.36350
