13
3015	1
C          0.78600        0.00290        0.27150
C          2.23500       -0.35890        0.42890
C          2.60200       -1.67440        1.01660
O          1.73380       -2.45690        1.36960
N          3.13500        0.48550        0.04810
N          4.47880        0.21950        0.16300
C          5.34760        1.07990       -0.22490
H          0.29020        0.00270        1.26490
H          0.28510       -0.73690       -0.38760
H          0.67410        1.01220       -0.17990
H          3.64280       -1.95500        1.13900
H          6.40480        0.85880       -0.12930
H          5.03640        2.03040       -0.64950
