14
2999	2
N          1.43380       -0.21910       -0.38140
C          2.81220        0.11550       -0.21270
C          3.76840       -0.86710        0.40780
C          3.41830       -2.08840        0.83570
C          3.21890        1.34150       -0.63010
C          4.60040        1.87130       -0.54170
O          4.83670        2.99480       -0.95470
H          1.04930       -1.12510       -0.09160
H          0.78160        0.45660       -0.80700
H          4.80850       -0.60400        0.53080
H          2.41160       -2.47330        0.77050
H          4.17350       -2.73480        1.27200
H          2.47810        2.00460       -1.07020
H          5.41480        1.29920       -0.12300
