19
3075	1
C          2.67200        1.35010        0.73980
C          2.43370        0.04730       -0.04340
O          2.79750        0.18770       -1.39620
C          3.10620       -1.19530        0.61030
N          2.71260       -2.42510       -0.08470
C          4.64670       -1.11860        0.73820
N          5.32040       -1.02870       -0.55510
H          2.10290        2.17830        0.26690
H          3.74550        1.63030        0.74500
H          2.32320        1.23700        1.78810
H          1.33490       -0.12170       -0.01790
H          3.65830        0.67800       -1.44320
H          2.71730       -1.26700        1.65120
H          2.96770       -2.37790       -1.09720
H          1.67520       -2.54460       -0.02160
H          5.01290       -2.01950        1.27990
H          4.92360       -0.23710        1.35360
H          5.20580       -1.92860       -1.07350
H          6.34430       -0.90270       -0.38470
