14
3084	1
N          1.59180       -0.11210        0.58220
C          2.81490        0.00980       -0.21540
C          3.14650       -1.31800       -0.92810
O          3.31120       -2.35710       -0.00120
C          2.66410        1.16130       -1.22040
F          3.83790        1.33600       -1.93240
F          1.62930        0.91150       -2.10540
H          1.72540       -0.82960        1.33100
H          0.79130       -0.40750       -0.02300
H          3.65680        0.26660        0.46570
H          4.06910       -1.21840       -1.54390
H          2.32330       -1.59440       -1.62130
H          4.17950       -2.19840        0.45230
H          2.44480        2.10260       -0.67300
