15
3025	1
C          0.99580        0.05220        0.03040
C          2.49620        0.04820       -0.07990
C          3.23240       -0.80020       -0.83220
C          2.71610       -1.90980       -1.70140
O          3.08830       -1.66640       -3.02830
C          3.19840        1.04440        0.66670
C          3.80610        1.87190        1.28510
H          0.49470       -0.63080       -0.66210
H          0.60560        1.07050       -0.17830
H          0.69900       -0.21830        1.06280
H          4.30970       -0.68600       -0.83660
H          1.63080       -2.07630       -1.64850
H          3.20060       -2.85430       -1.37280
H          2.75080       -0.75940       -3.25530
H          4.34000        2.58850        1.83870
