20
3058	1
C          0.96720       -0.15190       -0.20580
C          2.45670       -0.27640        0.12190
C          2.95040        0.72740        1.19450
C          2.24690        0.50180        2.54810
C          4.49290        0.61290        1.32120
C          5.11480        1.66650        2.24120
F          4.85090       -0.64950        1.76660
H          0.71090       -0.86180       -1.02040
H          0.73330        0.87850       -0.54810
H          0.33420       -0.40530        0.66770
H          3.01130       -0.08530       -0.82320
H          2.67150       -1.31910        0.44320
H          2.71170        1.75470        0.83900
H          2.45690       -0.51800        2.93500
H          1.15070        0.63190        2.45620
H          2.57500        1.24700        3.29930
H          4.93870        0.76680        0.31370
H          4.78000        1.54250        3.29040
H          4.85530        2.68700        1.88780
H          6.22020        1.56000        2.22820
