21
3070	1
C          1.29950       -0.06990       -0.44630
C          2.82610       -0.09740       -0.37020
C          3.37440       -1.30290        0.43270
N          2.99850       -2.58290       -0.18020
C          4.91490       -1.20160        0.59440
C          5.46080       -2.32110        1.49440
N          5.59370       -1.20890       -0.70550
H          0.97450        0.83950       -0.99440
H          0.86370       -0.04250        0.57500
H          0.90860       -0.95310       -0.99150
H          3.15240        0.84100        0.12940
H          3.23850       -0.10240       -1.40240
H          2.93650       -1.26110        1.45590
H          3.24020       -2.59150       -1.19740
H          1.97170       -2.74680       -0.07920
H          5.13850       -0.23390        1.09750
H          5.27570       -3.31920        1.04370
H          4.97430       -2.28220        2.49230
H          6.55520       -2.19510        1.63640
H          5.50550       -2.14580       -1.16100
H          6.61220       -1.01630       -0.56540
