12
3029	1
O          1.72400        1.46870        0.09110
C          2.46680        0.29080        0.02400
C          2.99470        0.16380       -1.37180
C          4.29120       -0.06850       -1.63400
F          5.18290       -0.22730       -0.64030
C          4.76210       -0.16910       -2.97920
C          5.15060       -0.25230       -4.11150
H          1.42900        1.56350        1.03270
H          1.80970       -0.57590        0.24000
H          3.27910        0.31050        0.77810
H          2.28000        0.27780       -2.17460
H          5.50690       -0.32810       -5.09730
