9
3042	1
F          0.95440        0.00380        0.07850
C          2.30330       -0.02850        0.09520
C          2.95990       -1.03890        0.61850
C          2.25780       -2.12050        1.17870
N          1.68140       -3.00510        1.63690
C          3.00600        1.05280       -0.46490
C          3.60140        1.96790       -0.93890
H          4.04210       -1.07610        0.63780
H          4.12790        2.79060       -1.36500
