19
3072	1
C          2.87450       -1.51710        0.21200
C          2.50590       -0.02860        0.10050
N          2.98170        0.70990        1.27400
C          3.00630        0.62010       -1.22480
N          2.50900        1.99460       -1.34200
C          4.53960        0.61310       -1.39360
O          4.89510        1.14250       -2.64340
H          2.42140       -1.94930        1.12940
H          3.97230       -1.66160        0.27550
H          2.48370       -2.07570       -0.66470
H          1.39390        0.02520        0.08650
H          4.01330        0.58730        1.39020
H          2.51640        0.33450        2.13250
H          2.57920        0.03200       -2.06800
H          2.87660        2.58530       -0.56110
H          1.46380        1.99960       -1.30540
H          4.92970       -0.42350       -1.35190
H          5.04400        1.18160       -0.58010
H          4.94180        2.12860       -2.53770
