19
3155	1
C          3.52450        0.39700       -1.41320
C          2.69140        0.00900       -0.18080
N          2.48250       -1.44190       -0.13570
C          3.33030        0.53760        1.13370
N          2.48300        0.23910        2.28980
C          4.71490       -0.02480        1.37510
C          5.78940        0.76860        1.43900
H          3.00920        0.06700       -2.34000
H          4.52780       -0.07830       -1.38090
H          3.65120        1.49950       -1.45790
H          1.69660        0.49750       -0.28490
H          3.39750       -1.94670       -0.12290
H          1.96150       -1.74410       -0.99100
H          3.39540        1.64610        1.04550
H          2.35260       -0.79280        2.39700
H          1.54580        0.68540        2.16480
H          4.84430       -1.09510        1.50290
H          5.69870        1.84380        1.31880
H          6.77060        0.34000        1.61330
