14
3158	1
N          1.06000        0.23560       -0.09050
C          2.50230       -0.01190        0.00670
C          2.90900       -0.77710        1.25940
C          2.05110       -1.22720        2.18620
C          2.98110       -0.75270       -1.24850
F          4.35690       -0.90310       -1.22410
F          2.39000       -2.00170       -1.33400
H          0.73890        0.81390        0.71980
H          0.52500       -0.66300       -0.12070
H          3.01530        0.97430        0.03540
H          3.96750       -0.96830        1.41190
H          0.98140       -1.07620        2.10820
H          2.43030       -1.76350        3.05000
H          2.71050       -0.16600       -2.15210
