21
3127	1
C          2.60910        1.24320        0.07410
N          2.42570       -0.17820       -0.22460
C          2.96310       -1.08180        0.81140
C          2.33660       -2.46900        0.60270
C          4.52660       -1.09930        0.82470
C          5.10220       -2.00430        1.92750
N          5.07200       -1.47610       -0.48280
H          2.07800        1.84520       -0.69280
H          3.68060        1.52870        0.04550
H          2.17260        1.49270        1.06500
H          2.81950       -0.40210       -1.16740
H          2.61220       -0.73470        1.81010
H          2.62010       -2.89830       -0.38020
H          1.22950       -2.38100        0.63250
H          2.62960       -3.17040        1.40960
H          4.87320       -0.07030        1.05870
H          4.85760       -3.07100        1.74610
H          4.70580       -1.70200        2.91950
H          6.20890       -1.91270        1.95160
H          4.85670       -2.47540       -0.69720
H          6.11210       -1.36650       -0.47140
