16
3097	1
C          1.02030        0.07070        0.19130
C          2.53710        0.00850       -0.05050
O          3.10770       -0.99130        0.75720
C          2.96760       -0.19580       -1.52970
O          2.53610       -1.43650       -2.03280
C          2.57210        0.95200       -2.47690
F          1.20190        1.03930       -2.64140
H          0.82710        0.22760        1.27370
H          0.52620       -0.87480       -0.11460
H          0.55990        0.91930       -0.35130
H          2.95870        0.97990        0.28880
H          2.69670       -1.85880        0.50340
H          4.07980       -0.21230       -1.52800
H          1.55240       -1.39450       -2.15080
H          3.02530        0.77290       -3.47500
H          2.95820        1.91830       -2.08870
