13
3178	1
C          0.99960        0.09930       -0.02410
C          2.53130       -0.00330        0.04940
O          2.95220       -0.27010        1.36830
C          3.10900       -1.02490       -0.95110
F          4.49120       -0.97340       -0.91980
C          2.67750       -2.40140       -0.65930
N          2.33330       -3.48290       -0.43020
H          0.65350        0.90740        0.65410
H          0.52270       -0.85180        0.29570
H          0.67260        0.33730       -1.05820
H          2.94060        0.98770       -0.23550
H          2.48980       -1.08960        1.68450
H          2.78440       -0.76690       -1.97960
