16
3100	1
C          1.10150        0.42570       -0.09830
C          2.61470        0.23880        0.01670
F          2.90870       -0.19100        1.30050
C          3.14160       -0.78220       -1.00870
O          2.84640       -0.33290       -2.30740
C          4.66020       -0.96960       -0.86560
O          5.13380       -1.90020       -1.80120
H          0.75860        1.16400        0.65710
H          0.57820       -0.53730        0.08260
H          0.82820        0.80440       -1.10580
H          3.10800        1.22150       -0.15010
H          2.63340       -1.75630       -0.81050
H          2.75930       -1.13820       -2.88150
H          4.92820       -1.30000        0.16390
H          5.17700       -0.00200       -1.04220
H          4.88490       -2.79860       -1.45970
