17
3118	1
C          1.58970        0.03380       -0.82090
C          3.07180       -0.10560       -0.48020
C          3.27700       -0.59080        0.96290
F          2.67810       -1.83020        1.12770
C          4.77230       -0.68880        1.30690
C          4.98370       -1.11910        2.75740
F          5.39340       -1.60110        0.46980
H          1.48090        0.39360       -1.86570
H          1.10470        0.76600       -0.14080
H          1.07470       -0.94600       -0.72970
H          3.55750        0.88630       -0.60960
H          3.53680       -0.82350       -1.19030
H          2.79630        0.13520        1.65550
H          5.24750        0.30660        1.16610
H          4.54210       -2.12250        2.93620
H          4.51500       -0.38690        3.44900
H          6.07110       -1.16710        2.97780
