18
3143	1
C          1.00250       -0.11270       -0.11420
C          2.53370        0.01520       -0.06340
C          2.96980        1.31000       -0.77310
C          3.05530       -0.09810        1.39920
C          4.58650       -0.14940        1.47280
C          2.55830        0.99330        2.25810
N          2.17040        1.84790        2.93540
H          0.65520       -0.12330       -1.16970
H          0.51070        0.73430        0.40990
H          0.68030       -1.06380        0.36080
H          2.94880       -0.84400       -0.63580
H          2.57200        2.20520       -0.24960
H          2.58970        1.31610       -1.81710
H          4.07440        1.38430       -0.82720
H          2.68120       -1.05820        1.81760
H          5.04610        0.80340        1.13730
H          4.97110       -0.97840        0.84130
H          4.91080       -0.33540        2.51950
