12
3105	1
O          1.09770        0.14350        0.11410
C          2.47560       -0.08210        0.26360
C          3.12350        1.10920        0.97880
F          2.94320        2.26140        0.23490
C          2.68260       -1.38610        1.04120
F          4.03250       -1.66000        1.17520
F          2.10650       -1.30150        2.29700
H          0.98160        0.70360       -0.69740
H          2.95210       -0.21400       -0.73650
H          4.21390        0.93760        1.10200
H          2.66810        1.25540        1.98150
H          2.20750       -2.22440        0.48850
