15
3151	1
C          0.97730       -0.27140       -0.02830
C          2.46390       -0.00200        0.23000
C          2.66180        1.45690        0.56990
C          3.42160        2.25720       -0.18460
C          3.00230       -0.88110        1.36880
F          2.32870       -0.62720        2.55190
F          2.86350       -2.22000        1.04770
H          0.61860        0.35720       -0.87150
H          0.36870       -0.03860        0.87210
H          0.81860       -1.33630       -0.30110
H          3.02550       -0.26030       -0.69610
H          2.17430        1.86810        1.44970
H          3.92350        1.88100       -1.07070
H          3.54350        3.30080        0.08650
H          4.08270       -0.67150        1.52210
