14
3122	1
C          1.04210        0.01120       -0.08240
C          2.56290       -0.03830        0.04610
C          2.99630       -0.44970        1.46210
F          2.49870       -1.70800        1.75870
C          4.52030       -0.47250        1.60460
F          5.07670       -1.38520        0.72560
F          5.04810        0.78260        1.35750
H          0.76600        0.31820       -1.11320
H          0.61850        0.74790        0.63310
H          0.60090       -0.98810        0.11830
H          2.96740        0.96990       -0.18990
H          2.96200       -0.76330       -0.69630
H          2.58560        0.27690        2.19690
H          4.78720       -0.76960        2.64080
