10
3171	1
O          0.94380        0.12790        0.12610
C          2.34360        0.08240        0.06760
C          2.91660        1.03060        1.03800
N          3.36700        1.77430        1.80230
C          2.81920       -1.34060        0.37250
F          4.19590       -1.41870        0.26810
F          2.43440       -1.71510        1.64720
H          0.66920        1.01920       -0.22020
H          2.69370        0.34150       -0.95860
H          2.36950       -2.04520       -0.35760
