19
3159	1
C          1.00930        0.00650        0.61520
C          2.48410       -0.11340        0.19180
C          2.85050       -1.58850       -0.02140
C          2.83310        0.72730       -1.06910
O          2.17660        0.25320       -2.22270
C          2.61650        2.21230       -0.83200
C          1.83950        2.98350       -1.60390
H          0.83910       -0.56300        1.55380
H          0.32520       -0.40110       -0.15730
H          0.74360        1.06650        0.81060
H          3.10390        0.26820        1.03420
H          2.25190       -2.02960       -0.84690
H          2.65830       -2.17010        0.90550
H          3.92890       -1.68440       -0.27030
H          3.92350        0.60710       -1.24850
H          1.19910        0.32620       -2.07990
H          3.12680        2.67350        0.00870
H          1.30840        2.58750       -2.46180
H          1.73440        4.03890       -1.37430
