18
3108	1
C          0.87470        0.10720       -0.10590
C          2.40440        0.09770        0.03590
C          2.79610        0.85450        1.31560
C          2.92970       -1.36180        0.02950
F          2.51300       -1.99450       -1.13120
C          4.46040       -1.47360        0.10940
O          5.07320       -0.79010       -0.95110
H          0.49710        1.15180       -0.13360
H          0.39730       -0.42200        0.74690
H          0.56640       -0.38800       -1.05100
H          2.82980        0.64040       -0.83700
H          2.39390        0.33980        2.21460
H          2.39070        1.88850        1.28600
H          3.89690        0.94250        1.41010
H          2.49600       -1.91150        0.89370
H          4.76270       -2.54590        0.10340
H          4.84000       -1.06270        1.06640
H          5.03150       -1.38980       -1.74100
