20
3106	1
C          1.06320        0.12280        0.06740
C          2.57310       -0.10270        0.11650
C          3.30720        0.77360       -0.91390
F          3.07030        2.11300       -0.64390
C          4.83190        0.50230       -0.96720
C          5.46830        1.30960       -2.10780
C          5.54250        0.83550        0.35520
H          0.56520       -0.53110        0.81410
H          0.66770       -0.12530       -0.94050
H          0.81910        1.17990        0.30530
H          2.77550       -1.17420       -0.10020
H          2.92220        0.12750        1.14410
H          2.88460        0.53700       -1.91590
H          4.99250       -0.57620       -1.18930
H          5.34640        2.40100       -1.93760
H          4.99590        1.04430       -3.07760
H          6.55310        1.08130       -2.18220
H          5.40700        1.90670        0.61700
H          6.63020        0.62810        0.26460
H          5.16140        0.20880        1.18600
