17
3175	1
C          0.93700       -0.31340       -0.33010
C          2.44510       -0.06260       -0.15710
N          2.90220        0.95760       -1.10330
C          2.80310        0.36720        1.28110
F          2.15440        1.55270        1.59610
C          2.48710       -0.72430        2.27910
C          1.64240       -0.54720        3.30150
H          0.72390       -0.63850       -1.37060
H          0.35900        0.61210       -0.12240
H          0.58970       -1.11480        0.35510
H          2.98620       -1.00880       -0.38360
H          2.39160        1.85640       -0.94590
H          2.71370        0.64000       -2.08150
H          3.89760        0.55220        1.33310
H          2.96810       -1.69080        2.15970
H          1.13690        0.39900        3.46260
H          1.45140       -1.36380        3.99010
