18
3189	1
C          1.04450       -0.57160       -0.33050
C          2.22200        0.29950        0.12550
C          3.29120        0.38880       -0.97100
N          1.76910        1.63390        0.53770
C          1.11550        2.52110       -0.42480
C          1.96770        2.03240        1.83180
O          1.60700        3.13420        2.21860
H          1.40090       -1.59490       -0.57570
H          0.55510       -0.15430       -1.23470
H          0.29510       -0.64920        0.48550
H          2.69260       -0.22670        0.98720
H          2.88610        0.84210       -1.89920
H          3.66520       -0.62700       -1.22120
H          4.14820        0.99780       -0.61290
H          0.18740        2.05510       -0.81230
H          1.79640        2.74280       -1.27090
H          0.82430        3.49680        0.01680
H          2.45340        1.36940        2.54160
