19
3194	1
C          1.18870       -0.31410        0.36520
C          2.50560        0.10480       -0.29630
C          2.55960       -0.36950       -1.75210
N          2.65960        1.55400       -0.23440
C          3.78930        2.13490        0.48160
N          1.71560        2.35090       -0.86630
C          1.75150        3.64030       -0.87630
H          1.08140       -1.41960        0.34080
H          0.31940        0.13880       -0.15800
H          1.17940        0.01560        1.42580
H          3.32990       -0.40360        0.25070
H          1.73740        0.08150       -2.34790
H          2.46710       -1.47560       -1.79930
H          3.53100       -0.07940       -2.20610
H          4.44650        1.35920        0.92720
H          3.42030        2.77760        1.30840
H          4.40730        2.73790       -0.21650
H          0.97360        4.18990       -1.39420
H          2.53640        4.20120       -0.38260
