15
3213	1
C          0.98750       -0.17600        0.09000
C          2.51470       -0.01890        0.06560
N          2.93390        0.82510       -1.05890
C          3.06760        0.51290        1.40730
F          4.45020        0.51440        1.37110
C          2.60850        1.87130        1.73710
C          2.23390        2.98600        2.00420
H          0.64500       -0.65670       -0.85170
H          0.48630        0.80920        0.18950
H          0.68460       -0.82770        0.93700
H          2.94680       -1.03350       -0.08230
H          2.58330        1.80260       -0.93930
H          2.52290        0.44960       -1.94560
H          2.74640       -0.16690        2.22520
H          1.91900        3.96900        2.23890
