13
3275	2
N          1.40060        0.57180        0.07700
C          2.52040       -0.14800        0.33830
O          2.92400       -0.22780        1.48940
C          3.28210       -0.87030       -0.76050
O          2.66550       -0.73490       -2.01830
C          4.74910       -0.41610       -0.82230
F          4.83500        0.93500       -1.11150
H          0.90290        1.04790        0.84410
H          1.02320        0.65600       -0.87660
H          3.28270       -1.95300       -0.50960
H          2.79120        0.20120       -2.32500
H          5.28580       -0.98950       -1.60760
H          5.25140       -0.60620        0.15020
