15
3259	1
N          1.14090        0.09700        0.23550
C          2.57060       -0.15250        0.01630
C          2.91940       -1.62250        0.31860
O          2.57320       -1.96120        1.63460
C          3.01170        0.20160       -1.39530
F          4.32390        0.04620       -1.71780
C          2.17680        0.66910       -2.33560
H          0.90970       -0.03180        1.24720
H          0.56690       -0.58080       -0.31850
H          3.14910        0.49830        0.70820
H          4.00510       -1.81440        0.15740
H          2.36700       -2.29280       -0.37460
H          3.24670       -1.53240        2.22470
H          1.12130        0.82460       -2.14520
H          2.55900        0.90660       -3.32310
