15
3248	1
N          1.12700       -0.10680       -0.06170
C          2.58500       -0.09410        0.09340
C          2.99790        0.96120        1.13640
F          2.54340        2.21210        0.75840
C          3.12210       -1.47370        0.46640
N          2.24890       -2.57530        0.68460
N          4.39190       -1.66300        0.56320
H          0.80580        0.80640       -0.45730
H          0.66380       -0.23840        0.86760
H          3.03240        0.17930       -0.88770
H          4.10210        1.01430        1.23150
H          2.57210        0.70850        2.13110
H          1.22830       -2.48320        0.59930
H          2.63760       -3.49920        0.92350
H          5.06890       -0.90430        0.39690
