14
3214	1
C          0.85600       -0.12850        0.05240
C          2.36320       -0.02570       -0.13330
O          2.64360       -0.00610       -1.53980
C          2.98350        1.17960        0.59560
F          4.33640        1.11840        0.40560
C          2.52990        2.48280        0.08910
C          2.16450        3.55070       -0.32250
H          0.47700       -1.03670       -0.42920
H          0.33550        0.71090       -0.42070
H          0.58660       -0.16020        1.11240
H          2.83140       -0.93710        0.25620
H          3.57790        0.26040       -1.63390
H          2.80330        1.10450        1.67280
H          1.84490        4.49650       -0.69580
