13
3201	1
C          0.90030        0.03440       -0.08520
C          2.43010       -0.02730       -0.07390
C          2.92580        0.15320        1.30060
C          3.32930        0.30580        2.42660
C          2.93460       -1.35400       -0.65830
F          4.31840       -1.36700       -0.68750
F          2.48770       -2.42720        0.09470
H          0.55350        1.01200        0.31390
H          0.46490       -0.77820        0.53590
H          0.52210       -0.06870       -1.12470
H          2.81990        0.80570       -0.69820
H          3.68450        0.43760        3.41480
H          2.56400       -1.46950       -1.69930
