19
3261	1
C          1.01360       -0.33270       -0.09590
C          2.47390       -0.13340        0.30850
C          3.24440        0.72750       -0.71950
O          2.62740        1.98300       -0.85850
C          4.73650        0.91890       -0.44630
C          5.54460        1.68360       -1.46440
C          5.34820        0.43510        0.65290
H          0.50220       -0.96550        0.65980
H          0.95220       -0.83870       -1.08280
H          0.48600        0.64280       -0.15230
H          2.94870       -1.13640        0.37900
H          2.50140        0.35180        1.30850
H          3.17150        0.20290       -1.69710
H          2.71520        2.45410        0.01180
H          5.48550        1.16830       -2.44590
H          6.61570        1.76590       -1.17990
H          5.13690        2.71050       -1.57130
H          4.81440       -0.11950        1.41420
H          6.41120        0.59290        0.80790
