16
3272	2
C          1.35790       -0.56580       -0.04440
C          2.84910       -0.23560       -0.00920
C          3.13260        1.06180        0.77880
O          2.67250        0.94920        2.10260
C          4.59820        1.45270        0.77370
N          4.99420        2.59530        1.38120
O          5.42810        0.74340        0.22270
H          1.19720       -1.49560       -0.62980
H          0.79160        0.25960       -0.52590
H          0.96820       -0.72510        0.98330
H          3.20390       -0.11410       -1.05620
H          3.39630       -1.08660        0.45240
H          2.57280        1.88720        0.28740
H          3.19000        0.22140        2.53790
H          4.30710        3.20480        1.84860
H          5.98820        2.86840        1.38200
