16
3258	1
N          1.79150        0.49610        0.73250
C          3.06680        0.22870        0.07340
C          3.26170       -1.28250       -0.16450
N          2.17620       -1.82500       -0.99130
C          4.63280       -1.53210       -0.77390
F          5.72860       -1.11200       -0.08610
C          4.81940       -2.15290       -1.94820
H          1.69520        1.52910        0.86310
H          1.79710        0.05480        1.68090
H          3.89220        0.62080        0.70940
H          3.09400        0.76590       -0.90040
H          3.24710       -1.80430        0.81760
H          2.08860       -1.27680       -1.87850
H          1.26880       -1.75890       -0.47600
H          3.99290       -2.51960       -2.54580
H          5.82710       -2.30150       -2.32290
