17
3249	2
C          0.99500       -0.66910       -0.08690
C          2.51630       -0.51970       -0.10800
C          3.13360       -0.31490        1.29930
N          2.87410       -1.46000        2.17580
C          4.63130       -0.08240        1.23440
N          5.32550        0.16930        2.36880
O          5.22100       -0.11720        0.16340
H          0.62040       -0.76240       -1.12800
H          0.52620        0.22270        0.38030
H          0.68840       -1.58080        0.46500
H          2.75560        0.36960       -0.73200
H          2.95990       -1.41690       -0.59280
H          2.68010        0.59490        1.75190
H          3.20090       -2.34530        1.72370
H          1.85590       -1.53490        2.39620
H          4.84530        0.20540        3.27980
H          6.34330        0.32880        2.33320
