17
3192	1
C          0.93090       -0.35190        0.22750
C          2.40010       -0.07180       -0.10170
C          2.72370       -0.48510       -1.54010
N          2.69680        1.34050        0.08830
O          2.05470        2.26040       -0.65290
C          3.68150        1.74770        1.03970
N          3.96880        2.98900        1.21300
H          0.71060       -1.43420        0.10810
H          0.25730        0.22370       -0.44290
H          0.71970       -0.06520        1.27960
H          3.02430       -0.69290        0.57950
H          2.10960        0.09140       -2.26470
H          2.52180       -1.56810       -1.68330
H          3.79770       -0.29770       -1.75290
H          1.27860        2.54080       -0.10280
H          4.20340        1.00270        1.63220
H          3.50420        3.73570        0.67690
