16
3269	1
N          1.23250        0.38360        0.05490
C          2.63820        0.41770       -0.33780
C          3.45550       -0.59750        0.48910
O          2.91520       -1.89010        0.35410
C          4.93410       -0.56560        0.12010
N          5.59200       -1.72280       -0.37890
N          5.61420        0.51600        0.27750
H          0.70470        1.06120       -0.54150
H          1.14650        0.70050        1.04800
H          3.03100        1.44800       -0.19450
H          2.71910        0.16570       -1.41830
H          3.37320       -0.31680        1.56180
H          2.82310       -2.08530       -0.61550
H          5.09260       -2.61340       -0.50710
H          6.59370       -1.68220       -0.61780
H          5.18710        1.37590        0.65110
