19
3225	1
C          3.11380       -1.44800        0.16930
C          2.61950       -0.00310        0.25250
C          3.22560        0.89090       -0.85110
C          2.62430        2.30100       -0.79180
C          4.74330        0.95900       -0.76060
N          5.53390        0.48970       -1.84060
N          5.32600        1.43460        0.28480
H          2.62880       -2.05210        0.96470
H          4.21340       -1.49830        0.31440
H          2.85550       -1.88670       -0.81780
H          2.85710        0.40510        1.25850
H          1.51300       -0.01530        0.14060
H          2.94120        0.45640       -1.83510
H          2.84600        2.79470        0.17790
H          1.52120        2.25160       -0.91490
H          3.03600        2.92510       -1.61370
H          5.09120        0.10270       -2.68640
H          6.56230        0.53030       -1.78780
H          4.79270        1.78480        1.09340
