19
3188	1
C          0.97920       -0.38960       -0.51000
C          2.32730        0.03650        0.08570
C          3.04500        1.03900       -0.82720
N          2.15240        0.58820        1.43170
C          2.78310       -0.07150        2.56670
C          1.36120        1.77480        1.62370
N          1.17740        2.29850        2.78620
H          1.13210       -0.84930       -1.50980
H          0.29280        0.47460       -0.62600
H          0.49850       -1.14200        0.15050
H          2.96340       -0.87520        0.12220
H          2.45310        1.96860       -0.95770
H          3.21320        0.58990       -1.82940
H          4.03250        1.30200       -0.39220
H          3.35900       -0.97110        2.26480
H          2.00760       -0.39890        3.29120
H          3.48990        0.62640        3.06340
H          0.89770        2.25520        0.76930
H          1.58040        1.90720        3.64790
