16
3286	1
C          0.70550       -0.23890       -0.09370
C          2.19670       -0.43940        0.02610
C          2.72700       -1.64940       -0.22870
C          3.07390        0.72920        0.45260
F          4.40130        0.35070        0.58670
C          2.99910        1.89960       -0.53550
O          3.41210        1.50210       -1.81580
H          0.17950       -1.17260       -0.38760
H          0.48020        0.52830       -0.86180
H          0.29850        0.09450        0.88370
H          2.09560       -2.48110       -0.52630
H          3.79350       -1.82930       -0.14680
H          2.72550        1.08090        1.44720
H          3.62470        2.74700       -0.17250
H          1.96280        2.29050       -0.60080
H          4.40470        1.51170       -1.81260
