16
3311	1
C          3.56950       -0.98620       -0.20750
N          3.09740       -0.06790        0.83280
C          3.40610        1.34420        0.53830
C          2.55790        2.23480        1.44870
C          4.87390        1.68290        0.72350
O          5.30550        2.93290        0.44940
O          5.66780        0.84280        1.12210
H          3.24140       -2.01710        0.03960
H          4.67650       -0.98250       -0.28090
H          3.13180       -0.71500       -1.19210
H          3.47530       -0.35060        1.76750
H          3.11910        1.57140       -0.51270
H          2.80900        2.05250        2.51600
H          1.48000        2.01540        1.29340
H          2.73030        3.30780        1.21660
H          6.23550        3.17720        0.55970
