13
3305	1
O          0.99870       -0.04270       -0.07910
C          2.39870       -0.07000       -0.10250
C          2.94410        0.93740        0.90930
F          2.46140        0.62010        2.17010
C          4.45570        0.95080        0.87590
F          5.08350        1.27700       -0.28570
C          5.19750        0.65660        1.95090
H          0.69920       -0.71690       -0.74290
H          2.75740        0.20050       -1.12130
H          2.75870       -1.08850        0.16790
H          2.58160        1.95370        0.64410
H          4.74330        0.39150        2.89990
H          6.28030        0.68000        1.88270
