14
3379	1
C          2.02600       -1.19550        0.96790
C          2.78520       -0.27950        0.05310
O          2.95020       -0.59850       -1.11530
C          3.33940        1.03040        0.55350
F          2.98670        1.22740        1.88090
C          4.83850        1.05910        0.37140
C          5.68900        1.21730        1.39250
H          1.69540       -2.10700        0.42540
H          1.13010       -0.67250        1.36310
H          2.67650       -1.50120        1.81390
H          2.89530        1.85590       -0.04210
H          5.24240        0.94790       -0.63100
H          5.33720        1.33260        2.41230
H          6.75790        1.23120        1.20570
