14
3296	2
N          1.24080        0.13760       -0.27960
C          2.67730        0.17450       -0.02270
C          3.10680       -1.05090        0.79240
F          2.76110       -2.19960        0.09840
C          4.59190       -1.01150        1.07860
N          5.41750       -1.99840        0.65240
O          5.05340       -0.07440        1.71340
H          0.98330        0.97910       -0.84430
H          0.72750        0.19750        0.62990
H          2.92960        1.10830        0.52850
H          3.21940        0.17920       -0.99390
H          2.56520       -1.05570        1.76300
H          5.05890       -2.80250        0.11860
H          6.42620       -1.95530        0.86080
