17
3322	1
C          2.64040        1.03180        1.22470
C          2.52540        0.09730        0.01580
N          3.09030        0.70510       -1.18780
C          2.15700        1.11240       -2.23300
C          4.44980        0.88530       -1.35320
N          5.34990        0.44470       -0.43360
O          4.87300        1.43690       -2.36010
H          2.17340        0.54980        2.10930
H          2.10260        1.98070        1.01460
H          3.68840        1.27960        1.47940
H          1.43640       -0.08610       -0.12430
H          2.98960       -0.89370        0.20710
H          1.58210        0.22920       -2.58430
H          2.65330        1.56170       -3.11810
H          1.44850        1.86460       -1.82560
H          5.07300       -0.06060        0.41640
H          6.35760        0.59200       -0.59440
