15
3361	1
C          0.86570       -0.08790        0.16400
C          2.37460       -0.07830        0.23220
C          2.99410       -0.40470        1.37920
C          3.18960        0.30500       -0.99230
O          2.96720       -0.60410       -2.04380
C          2.90140        1.72800       -1.40400
O          2.48470        1.98870       -2.52200
H          0.40610       -0.37520        1.13410
H          0.52290       -0.81480       -0.60040
H          0.49590        0.92330       -0.10520
H          2.42480       -0.67870        2.26220
H          4.07750       -0.40190        1.44900
H          4.27450        0.26610       -0.75330
H          2.02850       -0.50480       -2.35060
H          3.07340        2.53380       -0.69760
