16
3337	1
C          2.98920       -0.19430        0.88710
O          2.98480        0.40070       -0.38950
N          3.22820       -0.57880       -1.28560
C          2.11120       -1.32970       -1.82610
C          4.57120       -0.81930       -1.74090
N          4.84950       -1.84220       -2.68910
N          5.54660       -0.10530       -1.29680
H          2.84030        0.60120        1.64550
H          3.96680       -0.67800        1.10570
H          2.15110       -0.91720        0.99460
H          1.15670       -0.97930       -1.37880
H          2.23060       -2.40870       -1.59240
H          2.05170       -1.18390       -2.92540
H          4.10540       -2.44000       -3.07250
H          5.81740       -2.00000       -3.00590
H          5.40570        0.65130       -0.61260
