13
3297	2
N          1.25520        0.17270        0.25820
C          2.38540       -0.51460       -0.03810
O          2.71660       -1.45600        0.66750
C          3.23800       -0.14580       -1.23530
F          2.66920        0.89980       -1.94370
C          4.65470        0.26750       -0.82210
O          5.32990       -0.79430       -0.19960
H          0.68530       -0.09550        1.07430
H          0.94610        0.96860       -0.31740
H          3.29730       -1.02330       -1.91470
H          4.61880        1.16810       -0.16450
H          5.23030        0.55620       -1.72700
H          5.28950       -0.63420        0.77920
