16
3329	1
C          1.21850       -0.42370        1.05400
C          2.57310        0.21030        0.75350
N          3.52470       -0.80140        0.31160
O          3.26150       -1.44170       -0.84060
C          4.74980       -1.10810        1.01340
N          5.05850       -0.54800        2.28690
N          5.59620       -1.92790        0.49250
H          0.49930        0.36220        1.36740
H          1.32080       -1.16460        1.87510
H          0.81460       -0.93040        0.15230
H          2.89490        0.76480        1.64720
H          2.45350        0.96350       -0.05450
H          2.81020       -2.28350       -0.57260
H          4.41800        0.06050        2.80580
H          5.94820       -0.79620        2.74440
H          5.44010       -2.37610       -0.42140
