13
3378	1
C          0.91120       -0.15710       -0.18700
C          2.37990        0.13680       -0.03060
C          2.90090        1.24320       -0.59950
C          3.20620       -0.85090        0.77910
F          3.07770       -2.10880        0.21970
C          4.64160       -0.54360        0.87560
N          5.77270       -0.31340        0.95960
H          0.38220        0.61650       -0.78340
H          0.43820       -0.21330        0.81540
H          0.78620       -1.13430       -0.69930
H          2.27050        1.92130       -1.16800
H          3.95120        1.49550       -0.50870
H          2.79380       -0.88080        1.80920
