12
3374	1
O          1.29310       -0.01350       -0.05640
C          2.59760        0.25970        0.39520
C          2.72530        1.70520        0.79530
O          1.76880        2.46160        0.72780
C          2.97200       -0.61800        1.57070
F          4.21890       -0.49690        2.10080
C          2.13000       -1.51150        2.10880
H          1.24010        0.30360       -0.99610
H          3.32560        0.04210       -0.41950
H          3.68030        2.08350        1.14640
H          1.12450       -1.65240        1.72730
H          2.45200       -2.11620        2.95050
