16
3291	1
C          1.08840        0.00660       -0.22670
C          2.61480        0.00580       -0.27780
C          3.22270        0.69200        0.95620
F          2.80180        0.02710        2.09690
C          4.73840        0.71030        0.88260
N          5.51860        0.04040        1.86220
N          5.33460        1.34780       -0.06330
H          0.68600       -0.49260       -1.13330
H          0.70470        1.04860       -0.19490
H          0.72640       -0.54330        0.66770
H          2.92840        0.53390       -1.20340
H          2.97380       -1.04530       -0.33210
H          2.86220        1.74190        1.01750
H          5.07550       -0.47750        2.63380
H          6.54740        0.06340        1.80750
H          4.80850        1.85830       -0.78740
