15
3351	1
C          0.93980       -0.05770       -0.10620
C          2.41450        0.09400        0.27400
C          2.79330        1.55530        0.30070
C          3.73740        2.05130       -0.50530
C          2.68080       -0.52580        1.62090
O          3.55350       -1.55060        1.72560
O          2.11040       -0.10570        2.61820
H          0.75970        0.37800       -1.11230
H          0.28420        0.45930        0.62790
H          0.66270       -1.13340       -0.13740
H          3.02010       -0.44650       -0.48820
H          2.28560        2.22290        0.99190
H          4.26510        1.41440       -1.20860
H          3.98610        3.10670       -0.46190
H          3.73960       -1.96400        2.58060
