16
3376	1
C          0.84540        0.03770        0.12750
C          2.33610       -0.01100       -0.09960
C          2.82470       -0.22300       -1.33270
C          3.27400        0.18900        1.06990
F          3.05330        1.44520        1.61210
C          3.07500       -0.90700        2.08870
C          2.70010       -0.66270        3.34980
H          0.27400       -0.11680       -0.81290
H          0.56580        1.02730        0.54520
H          0.54740       -0.75400        0.84590
H          2.15930       -0.36470       -2.17890
H          3.89530       -0.25760       -1.50990
H          4.33480        0.14590        0.74020
H          3.24400       -1.93560        1.78290
H          2.51880        0.34730        3.70210
H          2.57100       -1.48770        4.04280
