12
3383	1
N          0.93190        0.42480        0.15460
C          2.23060       -0.15160        0.07930
N          2.57270       -1.07250        0.91040
C          3.21560        0.29580       -0.97440
F          2.65130        1.24990       -1.80660
C          4.45390        0.85040       -0.32890
O          4.80720        1.99910       -0.54430
H          0.26340        0.11190        0.87380
H          0.63950        1.16150       -0.50240
H          1.92420       -1.40410        1.63950
H          3.49800       -0.57940       -1.59700
H          5.04480        0.22490        0.33290
