14
3428	1
N          2.59530       -1.62840        0.45780
C          2.24990       -0.24440        0.50600
N          1.11640        0.13360        0.02730
N          3.12650        0.74440        1.07090
O          2.71960        2.02620        1.07640
C          4.40100        0.41710        1.64070
C          5.19090        1.36040        2.16910
H          1.93810       -2.30600        0.04420
H          3.48280       -1.99280        0.81860
H          0.45600       -0.53990       -0.38790
H          3.04220        2.40320        0.21730
H          4.76490       -0.59880        1.66300
H          4.89570        2.40430        2.18510
H          6.15080        1.08470        2.59410
