17
3438	1
C          0.96720       -0.10390        0.17290
C          2.48600        0.05310        0.07760
C          2.96740       -0.38760       -1.21050
C          3.36410       -0.75080       -2.27220
C          2.89670        1.48700        0.39670
C          3.23790        1.74890        1.84030
C          2.96110        2.48100       -0.50880
H          0.67070       -1.14500       -0.00020
H          0.44860        0.51220       -0.57150
H          0.59960        0.18540        1.16370
H          2.93610       -0.60450        0.83380
H          3.72190       -1.07330       -3.22250
H          4.08750        1.13070        2.14790
H          2.38360        1.51280        2.48290
H          3.50710        2.79550        2.01860
H          2.71230        2.32030       -1.55370
H          3.26130        3.48680       -0.23120
