13
3418	1
N          1.12840        0.30790       -0.22640
N          2.46660        0.02200        0.04420
C          3.01120       -1.27380       -0.26670
N          2.29510       -2.20600       -0.79200
C          3.26050        0.98610        0.60930
N          2.76080        2.21180        0.91240
O          4.43730        0.75150        0.84980
H          0.52380       -0.35310        0.31310
H          0.96060        0.20480       -1.25350
H          4.05460       -1.48870       -0.05680
H          1.29940       -2.08390       -1.02010
H          1.77710        2.45520        0.73020
H          3.37000        2.92640        1.33770
