16
3475	1
C          1.12510       -0.10520        0.47740
C          2.60730       -0.23050        0.11260
F          3.34830       -0.16030        1.27970
C          3.01080       -1.48880       -0.64880
C          2.12350       -2.45720       -0.96870
C          4.47280       -1.60930       -1.04390
O          4.75860       -2.78270       -1.75980
H          0.95500        0.85280        1.01280
H          0.81590       -0.93640        1.14630
H          0.49770       -0.10450       -0.43930
H          2.86850        0.64560       -0.51930
H          1.07740       -2.39100       -0.69830
H          2.42740       -3.34430       -1.51300
H          5.11740       -1.55180       -0.13720
H          4.74350       -0.74330       -1.68370
H          4.89960       -3.50020       -1.08790
