17
3482	1
C          0.86090       -0.05090        0.16600
C          2.38770       -0.06990       -0.01230
C          3.03090       -0.81850        1.16280
C          2.79650       -0.68530       -1.34240
O          1.94740       -1.13500       -2.10050
C          4.24920       -0.71600       -1.75250
O          4.40580       -1.26580       -3.03380
H          0.59160        0.43880        1.12630
H          0.45040       -1.08390        0.16630
H          0.38610        0.52540       -0.65680
H          2.74100        0.98430        0.00350
H          2.70770       -1.88180        1.17300
H          2.73640       -0.34620        2.12440
H          4.13780       -0.77820        1.10160
H          4.86010       -1.28810       -1.02020
H          4.64060        0.32250       -1.76960
H          4.35540       -2.25200       -2.92910
