17
3394	1
C          1.07980       -0.40500       -0.38350
N          2.50480       -0.13700       -0.18900
C          3.17020        0.93420       -0.90800
C          2.54770        1.86530       -1.65340
C          3.24580       -0.99300        0.73090
C          2.59320       -2.16810        1.42740
N          4.48790       -0.78370        1.01710
H          0.57190        0.24180       -1.11130
H          0.54140       -0.29290        0.58150
H          0.94410       -1.43480       -0.77610
H          4.24290        1.03250       -0.87030
H          1.48110        1.93050       -1.79040
H          3.14520        2.62380       -2.14990
H          1.52770       -2.33000        1.18650
H          2.66200       -2.02250        2.52610
H          3.13810       -3.09770        1.15930
H          5.06630       -0.02320        0.65000
