13
3416	1
N          1.00510        0.21340       -0.07300
N          2.39870        0.17660       -0.15350
C          2.98360       -0.33090       -1.28210
O          2.29200       -0.74130       -2.20200
C          3.17180        0.67520        0.96260
N          4.59710        0.69870        0.94900
N          2.57240        1.11990        2.01370
H          0.63390       -0.76180       -0.15340
H          0.63520        0.80280       -0.85470
H          4.05330       -0.38920       -1.39790
H          5.15900        0.37970        0.15370
H          5.10330        1.06200        1.76980
H          1.54730        1.13830        2.10400
