15
3414	1
N          1.03760        0.21550       -0.15880
N          2.41480       -0.00200       -0.22150
C          3.01020       -1.05040        0.56860
C          2.28420       -1.86240        1.35150
C          3.20760        0.85040       -1.07790
N          4.60310        0.63850       -1.27270
N          2.65350        1.83310       -1.70230
H          0.77310        0.44940        0.82540
H          0.54110       -0.64630       -0.48190
H          4.07610       -1.21530        0.56480
H          1.20690       -1.78010        1.43120
H          2.78190       -2.63360        1.93080
H          5.11640       -0.14230       -0.85210
H          5.12920        1.27330       -1.89120
H          1.65150        2.05380       -1.61720
