14
3412	1
C          3.22100        0.06250        1.36350
C          2.53340       -0.33060        0.08130
O          1.31410       -0.42960        0.08540
N          3.23080       -0.57670       -1.07610
N          2.53890       -0.94010       -2.23220
C          4.66110       -0.46820       -1.12540
N          5.31280       -0.68990       -2.21280
H          2.47690        0.21760        2.17420
H          3.77950        1.01130        1.22080
H          3.91720       -0.74140        1.68230
H          1.87030       -0.17500       -2.48120
H          2.01290       -1.82530       -2.04680
H          5.22650       -0.19390       -0.24230
H          4.84460       -0.95300       -3.09130
