15
3436	1
C          1.13310       -0.16930        0.20450
N          2.50720        0.28350        0.28340
N          3.26530        0.23630       -0.87440
C          4.49500       -0.14710       -0.89070
C          3.02090        0.81350        1.53060
N          2.29190        0.64580        2.74120
N          4.11300        1.49830        1.57030
H          0.88900       -0.50210       -0.82750
H          0.44450        0.65910        0.47530
H          0.97380       -1.03450        0.88140
H          5.04020       -0.16100       -1.82770
H          4.98950       -0.49090        0.01290
H          1.40540        0.12620        2.77380
H          2.65460        1.04710        3.61850
H          4.67800        1.71800        0.74110
