14
3541	1
C          0.81330       -0.18810        0.10670
N          2.24370        0.03890        0.06210
O          3.03820       -0.68610        0.86660
C          2.81940        1.01440       -0.82160
N          4.09510        1.18930       -0.85450
C          1.95650        1.84550       -1.73570
F          1.09170        2.62940       -0.99520
H          0.57350       -0.98450        0.84310
H          0.44800       -0.51360       -0.88980
H          0.28640        0.73690        0.41830
H          3.25610       -1.50170        0.34590
H          4.73760        0.64990       -0.25710
H          1.37650        1.18530       -2.41330
H          2.58310        2.51720       -2.36120
