18
3496	2
C          1.03140        0.88020        1.00520
N          2.32680        0.44510        0.53210
C          3.23930       -0.30580        1.33970
N          2.94140       -0.64170        2.55010
C          4.57910       -0.70250        0.74870
C          5.48710       -1.44840        1.74230
N          4.35800       -1.51730       -0.44670
H          0.50820        1.44460        0.20440
H          1.15280        1.54800        1.88420
H          0.41100        0.00100        1.27930
H          2.60410        0.69250       -0.42980
H          2.04630       -0.39520        2.99350
H          5.10180        0.23280        0.45050
H          5.01470       -2.39950        2.06920
H          5.68230       -0.81480        2.63380
H          6.46230       -1.68210        1.26460
H          3.89660       -2.41950       -0.18480
H          5.27490       -1.73130       -0.90260
