16
3579	1
C          0.95660        0.09140        0.22690
C          2.47870       -0.04220        0.12500
C          3.17280        1.05190        0.94140
C          2.94880       -1.43010        0.52910
C          3.57050       -2.24110       -0.34590
C          2.72890       -1.89020        1.86730
N          2.54960       -2.26040        2.95180
H          0.63060        1.06590       -0.15290
H          0.60800        0.00540        1.26200
H          0.45440       -0.68140       -0.36550
H          2.74370        0.12990       -0.92740
H          2.90190        1.00350        2.00180
H          2.88990        2.04380        0.57220
H          4.26240        0.96700        0.86530
H          3.75920       -1.93650       -1.37080
H          3.90870       -3.23500       -0.06200
