15
3502	2
C          1.79820        0.28900       -1.00810
C          2.47890        0.17030        0.35450
F          1.55570        0.39920        1.35970
C          3.10620       -1.19270        0.54480
N          2.37310       -2.25210        0.56020
N          4.51760       -1.30330        0.71920
N          5.12950       -2.53990        0.89580
H          1.36510        1.30520       -1.12060
H          0.97910       -0.45310       -1.11250
H          2.53930        0.12820       -1.82010
H          3.26170        0.95650        0.41420
H          1.35000       -2.20400        0.44640
H          5.10240       -0.45510        0.71170
H          4.92360       -3.13340        0.05980
H          4.72900       -2.98880        1.75120
