18
3580	1
C          0.92880        0.20970        0.48150
C          2.36570       -0.00460       -0.03090
N          3.31690        0.18880        1.06570
C          2.64340       -1.35270       -0.70130
C          1.70200       -2.32270       -0.77250
C          4.01490       -1.53740       -1.27910
C          4.45130       -2.64150       -1.90420
H          0.82690        1.23060        0.90710
H          0.67750       -0.52380        1.27710
H          0.20300        0.11840       -0.35460
H          2.54990        0.77970       -0.79820
H          3.13730       -0.51220        1.82170
H          3.20910        1.14930        1.46620
H          0.71160       -2.19210       -0.35650
H          1.88910       -3.27580       -1.24500
H          4.71350       -0.71040       -1.18610
H          3.83750       -3.51890       -2.05020
H          5.46670       -2.66870       -2.28660
