15
3582	1
C          1.18450       -0.42060       -0.37040
C          2.47100        0.27340        0.10080
O          3.46860        0.24010       -0.89000
C          2.21850        1.70370        0.56370
C          2.44970        2.03910        1.84360
C          1.72180        2.74950       -0.36940
O          1.50280        2.49680       -1.54280
H          1.40910       -1.47020       -0.65600
H          0.74070        0.09120       -1.24870
H          0.43670       -0.43110        0.45110
H          2.84590       -0.33530        0.95330
H          3.07270        0.54670       -1.74610
H          2.81350        1.30680        2.55780
H          2.27710        3.05310        2.19300
H          1.55030        3.75950       -0.00920
