17
3571	1
C          1.37790       -0.32880       -0.10490
O          2.72630       -0.04400       -0.17590
C          3.36840        0.48690       -1.25810
N          2.72940        0.77360       -2.34370
N          4.77710        0.72800       -1.18140
C          5.49120        0.40380        0.04110
C          5.48580        1.29280       -2.31890
H          1.15000       -0.74960        0.89580
H          1.10210       -1.08150       -0.87410
H          0.78070        0.59800       -0.24100
H          1.71770        0.62130       -2.45390
H          5.06940        0.98680        0.88710
H          6.57370        0.63930       -0.03300
H          5.38900       -0.68060        0.25830
H          5.06200        2.28880       -2.56810
H          5.38170        0.62080       -3.19710
H          6.56900        1.42270       -2.11260
