13
3525	1
C          1.27360        0.50780        0.32790
O          2.65090        0.47960        0.42520
C          3.38830        0.96650        1.46550
C          2.81080        1.54580        2.54040
C          4.88860        0.83540        1.37350
F          5.54240        1.36820        2.47230
F          5.22280       -0.50120        1.26190
H          0.96940        0.03830       -0.62990
H          0.90800        1.55680        0.33720
H          0.81650       -0.06640        1.16190
H          1.73470        1.64750        2.62080
H          3.40710        1.92940        3.36140
H          5.23960        1.36880        0.46560
