16
3557	1
C          1.45050       -1.03480       -0.58570
N          2.38780       -0.12880        0.05410
N          3.71330       -0.52460        0.21500
C          1.96880        1.16900        0.51020
N          2.82140        1.97750        1.04200
N          0.60580        1.58520        0.37780
N          0.20040        2.85550        0.77480
H          1.95470       -1.98000       -0.88030
H          1.03800       -0.56450       -1.50350
H          0.62640       -1.28760        0.11400
H          4.11580       -0.72570       -0.72890
H          3.73000       -1.39640        0.79250
H          3.81470        1.73400        1.16100
H         -0.09880        0.95010       -0.01890
H          0.73800        3.56140        0.22160
H          0.41310        2.97130        1.79190
