16
3574	1
C          1.39280        0.76400        0.04310
O          2.73500        0.44600        0.04890
C          3.29710       -0.41930        0.93580
O          2.59530       -0.95770        1.78370
N          4.64180       -0.68680        0.88020
C          5.49120       -0.05730       -0.11950
C          5.27030       -1.60860        1.81650
H          1.19410        1.48700       -0.77440
H          1.10490        1.23000        1.00980
H          0.78330       -0.14850       -0.13120
H          4.93820        0.62930       -0.79300
H          5.96730       -0.83850       -0.74920
H          6.28670        0.53130        0.38490
H          4.55580       -2.04530        2.54520
H          6.05760       -1.07650        2.39140
H          5.73830       -2.44630        1.25730
