14
3583	1
C          1.06870        0.22970        0.17270
C          2.57420        0.06920       -0.10080
O          3.32600        0.60010        0.96290
C          2.96510       -1.37720       -0.34640
C          3.53600       -1.76100       -1.50150
C          2.72700       -2.35850        0.68530
N          2.53160       -3.13630        1.51880
H          0.82910        1.30620        0.30120
H          0.77190       -0.29730        1.10520
H          0.46590       -0.17030       -0.66960
H          2.80550        0.67480       -1.00330
H          2.98400        0.20920        1.81030
H          3.73440       -1.04810       -2.29670
H          3.82070       -2.79840       -1.66520
