18
3553	1
C          2.86490        1.56670       -1.79210
N          3.22190        0.23780       -1.34520
C          3.25160       -0.13370        0.04330
N          2.95340        0.72740        0.95880
N          3.61410       -1.47090        0.43370
C          3.95680       -2.47030       -0.56560
C          3.63750       -1.82570        1.84510
H          2.91180        1.61750       -2.90070
H          3.57590        2.31190       -1.37690
H          1.82920        1.81010       -1.47370
H          3.46110       -0.45530       -2.06710
H          2.68590        1.69870        0.75120
H          4.83930       -2.13300       -1.14940
H          3.09490       -2.63430       -1.24640
H          4.21250       -3.44880       -0.10770
H          2.62800       -1.68130        2.28520
H          4.36630       -1.18190        2.38190
H          3.93250       -2.88370        2.00780
