14
3641	1
N          0.66020       -0.23260       -0.02400
C          2.07720       -0.06540       -0.02040
N          2.56790        1.09650        0.23720
C          3.02130       -1.19960       -0.30730
C          2.58520       -2.44590       -0.58560
C          4.51120       -0.91180       -0.27780
F          5.28530       -2.02640       -0.55580
H          0.04750        0.57110        0.17780
H          0.21130       -1.13360       -0.22220
H          1.96080        1.90440        0.43990
H          1.53830       -2.70540       -0.61960
H          3.28370       -3.25030       -0.78970
H          4.79210       -0.53700        0.72890
H          4.74810       -0.12910       -1.02880
