14
3610	1
C          1.08000        0.43670        0.26630
N          2.41810        0.07490       -0.19450
C          3.02630        1.01020       -1.13600
C          3.01530       -1.09060        0.26800
O          2.40220       -1.79510        1.05810
C          4.37390       -1.58930       -0.11220
O          5.11970       -1.01650       -0.88380
H          0.39170        0.50640       -0.60290
H          1.11430        1.42350        0.77510
H          0.63830       -0.28840        0.98050
H          2.37990        1.09760       -2.03510
H          4.02620        0.76910       -1.50000
H          3.10040        2.01180       -0.66130
H          4.71420       -2.52110        0.32940
