16
3609	1
C          0.77450       -0.57840        0.51750
N          2.12300       -0.11290        0.23260
C          2.99320        0.18750        1.36310
C          2.56330        0.03920       -1.06320
O          3.70290        0.43260       -1.27700
C          1.68150       -0.26510       -2.23170
C          2.10490       -0.11880       -3.49320
H          0.59230       -0.64140        1.61250
H          0.62340       -1.59320        0.09190
H          0.02950        0.12710        0.09190
H          2.53350        0.98490        1.98470
H          4.00240        0.53580        1.05970
H          3.12330       -0.72390        1.98460
H          0.66720       -0.61530       -2.07800
H          3.10900        0.22790       -3.71640
H          1.43700       -0.34930       -4.31710
