8
3601	1
F          1.01450       -0.25730       -0.01050
C          2.38080       -0.05240       -0.02930
F          3.02440       -1.27370       -0.12100
C          2.72870        0.80980       -1.20520
O          2.81350        2.01600       -1.08060
C          2.96480        0.19770       -2.48760
N          3.15400       -0.29650       -3.52200
H          2.68800        0.44180        0.91760
