13
3622	1
C          1.01960       -0.07720        0.15370
C          2.50560        0.10650       -0.17780
O          3.05800       -1.10060       -0.64630
C          2.69670        1.23510       -1.16800
O          2.35710        2.36820       -0.86470
C          3.25010        0.99710       -2.47910
C          3.68760        0.80810       -3.58610
H          0.89410       -0.89190        0.89730
H          0.45130       -0.34100       -0.76480
H          0.59580        0.85820        0.57700
H          3.04230        0.37410        0.75830
H          2.51790       -1.40760       -1.42090
H          4.05770        0.64790       -4.56430
