10
3702	2
O          1.40320       -0.29960       -0.64610
N          2.49660        0.27950       -0.12710
C          3.16760       -0.30950        0.89630
O          2.77110       -1.37230        1.35170
C          4.37770        0.31870        1.47180
O          5.02770       -0.28640        2.48910
O          4.79180        1.38130        1.03210
H          0.64050        0.13050       -0.18060
H          2.82480        1.17370       -0.52160
H          5.82080        0.10640        2.88070
