14
3720	1
C          1.10660        0.29690        0.22240
C          2.57150        0.00230        0.06400
C          3.17310       -0.85420        0.91990
C          3.31630        0.64060       -1.05770
C          2.87610        1.75750       -1.66650
C          4.52260        0.03110       -1.54750
N          5.49300       -0.45050       -1.94890
H          0.63780       -0.34440        0.98240
H          0.57590        0.10990       -0.73140
H          0.94810        1.34380        0.51910
H          2.61430       -1.31170        1.72900
H          4.22890       -1.10110        0.86250
H          1.97710        2.27860       -1.35900
H          3.43220        2.19130       -2.49150
