14
3727	2
N          2.52040       -0.94870       -0.19600
C          2.04770        0.32080       -0.09900
O          0.84390        0.50240       -0.22230
C          2.94870        1.50730        0.15400
C          2.38020        2.73290        0.23550
C          4.43910        1.33050        0.31100
C          5.31140        2.32620        0.53850
H          1.86430       -1.72490       -0.36950
H          3.51400       -1.18160       -0.10390
H          1.30830        2.86130        0.12270
H          2.94740        3.63400        0.41340
H          4.86910        0.34360        0.24080
H          5.02120        3.36230        0.63160
H          6.36730        2.09400        0.63650
