12
3693	3
C          0.66810        0.38550       -0.21390
C          1.99850       -0.24150        0.08450
O          2.87300        0.42880        0.61280
C          2.25360       -1.66340       -0.25790
O          1.37060       -2.32420       -0.78600
N          3.45570       -2.23640        0.00890
O          3.67900       -3.52330       -0.29850
H          0.65370        1.44910        0.10720
H         -0.13290       -0.16050        0.32710
H          0.46960        0.34060       -1.30530
H          4.20690       -1.69120        0.45760
H          4.12200       -3.50130       -1.18550
