9
3753	1
F          0.93920       -0.08780        0.17830
C          2.27590        0.02780       -0.02610
C          2.86540       -0.81390       -0.89330
C          3.00460        1.08060        0.72410
O          2.38600        1.79890        1.49470
C          4.42310        1.28000        0.56790
N          5.56200        1.43520        0.43830
H          2.25970       -1.55850       -1.40330
H          3.92940       -0.78920       -1.11420
