14
3692	2
C          0.72160        0.10610       -0.09210
N          2.10080        0.50350        0.09030
C          3.13030       -0.35310       -0.16000
O          2.90130       -1.49040       -0.54940
C          4.53740        0.07970        0.03520
C          5.66910       -0.86620       -0.24150
O          4.78310        1.21200        0.42350
H          0.04760        0.95010        0.16670
H          0.48340       -0.75470        0.56850
H          0.54480       -0.17830       -1.15130
H          2.29680        1.46130        0.41830
H          5.57840       -1.75960        0.41120
H          6.64720       -0.37800       -0.04290
H          5.63960       -1.18440       -1.30460
