13
3725	1
N          2.66190       -1.19760        0.24330
C          2.18490        0.12710        0.01180
N          0.91180        0.32610       -0.00840
C          3.11230        1.30500       -0.21030
C          2.58220        2.52710       -0.42090
C          4.60390        1.21340       -0.21380
O          5.19690        0.16530       -0.03590
H          1.98910       -1.96470        0.38860
H          3.65550       -1.43810        0.27530
H          0.24250       -0.44390        0.13760
H          1.50950        2.69040       -0.43580
H          3.22000        3.39160       -0.58340
H          5.19090        2.11210       -0.38120
