11
3685	2
N          1.02810       -0.15260        0.05840
C          2.44130       -0.05080       -0.09590
N          3.05390       -0.71050       -1.01940
O          2.40380       -1.49830       -1.85020
C          3.22600        0.81870        0.80780
O          4.56510        0.91210        0.65790
O          2.66730        1.45340        1.69010
H          0.46650       -0.75320       -0.56200
H          0.54350        0.37640        0.79750
H          2.88560       -1.98240       -2.53400
H          5.09580        1.47540        1.23890
