10
3746	2
N          1.04120        0.54760        0.16890
C          2.18080       -0.12250       -0.12880
O          3.02700       -0.28360        0.73820
C          2.41030       -0.66120       -1.49420
O          1.56510       -0.50120       -2.36270
C          3.65380       -1.39180       -1.81710
O          3.83680       -1.83220       -2.94100
H          0.88990        0.91810        1.11890
H          0.31170        0.69730       -0.54320
H          4.41390       -1.54240       -1.05760
