13
3714	1
C          1.97680        0.55610       -1.14860
O          3.26720        0.33100       -0.71700
C          3.57560       -0.04140        0.55320
O          2.69070       -0.19430        1.38450
C          4.99360       -0.26430        0.93670
N          5.32160       -0.65290        2.26190
N          5.93780       -0.10860        0.07590
H          1.99690        0.84680       -2.21900
H          1.51480        1.37990       -0.56340
H          1.36960       -0.36820       -1.04090
H          4.58630       -0.78470        2.97120
H          6.30500       -0.80770        2.52860
H          5.74900        0.17250       -0.89740
