12
3757	2
N          1.03780        0.03450       -0.30620
C          2.39270        0.06960       -0.21800
O          3.05350       -0.31520       -1.17260
C          3.10960        0.56210        1.00480
C          2.47650        1.00560        2.10580
C          4.51560        0.56210        1.00480
C          5.70580        0.56210        1.00480
H          0.59030       -0.31250       -1.16780
H          0.42690        0.34300        0.45860
H          1.40020        1.03970        2.19040
H          3.04720        1.35150        2.96430
H          6.76410        0.56210        1.00470
