10
3763	2
N          1.19330       -0.55000        0.15620
C          2.15140        0.39810       -0.09600
O          2.54100        0.67160       -1.21950
C          2.70680        1.10070        1.15230
O          2.27970        0.77320        2.25550
C          3.71390        2.13480        1.04800
C          4.55020        2.99380        0.96610
H          0.77950       -1.05790       -0.61240
H          0.90520       -0.74210        1.10980
H          5.29170        3.75540        0.89250
