14
3711	1
C          1.21820        0.18640       -0.17940
O          2.58430        0.30690       -0.01630
C          3.22460        0.64560        1.14250
C          2.54790        0.90370        2.28030
C          4.71010        0.73050        1.14240
F          5.37230        1.06580        2.28350
C          5.42150        0.48280        0.03660
H          1.00380       -0.09970       -1.22940
H          0.71810        1.15600        0.03020
H          0.81870       -0.60540        0.48960
H          1.46610        0.85320        2.32380
H          3.07270        1.17140        3.19210
H          4.93960        0.21170       -0.89760
H          6.50430        0.55150        0.06290
