12
3726	1
N          0.93160        0.16880        0.11670
C          2.30470       -0.18240       -0.00040
N          2.90190       -0.73110        0.99830
C          3.05810        0.10470       -1.25770
C          4.37120       -0.16150       -1.35880
C          2.37230        0.69260       -2.38740
N          1.81340        1.16310       -3.28520
H          0.43720        0.02300        1.00860
H          0.42430        0.61130       -0.66170
H          2.39650       -0.92670        1.87490
H          4.92040       -0.59730       -0.52980
H          4.91760        0.06190       -2.27110
