17
3769	1
C          1.01890        0.09470        0.23670
C          2.50860       -0.19500       -0.00860
N          2.74760       -1.64180        0.05270
C          2.99280        0.42430       -1.32500
C          2.89090        1.92520       -1.49520
C          3.52590       -0.32720       -2.31500
F          3.96170        0.23920       -3.47230
H          0.70110       -0.34300        1.20680
H          0.39860       -0.34470       -0.57370
H          0.82580        1.18550        0.28850
H          3.09360        0.27860        0.81050
H          2.11420       -2.14190       -0.61430
H          2.54310       -1.99210        1.01700
H          3.45900        2.42740       -0.68450
H          1.83240        2.25090       -1.44910
H          3.29860        2.28000       -2.46450
H          3.62500       -1.40150       -2.21980
