17
3852	1
C          0.90620        0.10310        0.04050
C          2.40910        0.06880        0.02240
F          3.06480        1.20590        0.38460
C          3.11700       -1.03550       -0.33270
C          2.44950       -2.33110       -0.74680
C          4.63180       -1.00400       -0.33200
N          5.15590       -1.99360        0.60330
H          0.55740        1.10580        0.36450
H          0.51350       -0.64980        0.75600
H          0.50530       -0.09310       -0.97630
H          1.34310       -2.29740       -0.73610
H          2.76410       -3.14620       -0.06250
H          2.76630       -2.59070       -1.77860
H          5.03790       -0.00450       -0.06290
H          4.99030       -1.24140       -1.35670
H          4.87330       -1.72530        1.57430
H          6.20040       -1.97380        0.55870
