17
3801	1
C          0.87810        0.21970       -0.26620
N          2.31480        0.22960       -0.09310
C          2.96440        1.11720        0.59190
C          2.22170        2.24970        1.28410
N          4.39170        1.00170        0.67740
C          5.19840        1.94190        1.42790
O          5.00390       -0.01780        0.05300
H          0.59640       -0.64910       -0.89570
H          0.54340        1.14680       -0.77790
H          0.37040        0.12000        0.71650
H          1.49990        1.83210        2.01640
H          1.67130        2.85190        0.53160
H          2.88300        2.94290        1.83620
H          4.90060        1.93070        2.49770
H          5.08240        2.96330        1.00800
H          6.27180        1.66270        1.36540
H          5.22720        0.32960       -0.84890
