13
3857	1
C          1.04290        0.11190       -0.05470
C          2.54520        0.03750        0.06980
C          3.29180       -0.92920       -0.82180
O          3.09600       -0.59460       -2.16960
C          3.20420        0.80930        0.95910
F          2.53110        1.67600        1.76270
F          4.55770        0.74020        1.07340
H          0.76770        0.41320       -1.08680
H          0.58680        0.84210        0.64600
H          0.60650       -0.88660        0.15700
H          2.94650       -1.96900       -0.61790
H          4.38450       -0.92820       -0.62680
H          2.29000       -1.08590       -2.47750
