13
3884	1
C          0.99750       -0.11850       -0.33640
C          2.49650       -0.00580       -0.16070
C          3.28580       -1.16490        0.35460
C          2.73020       -2.33860        0.68210
C          3.13140        1.14390       -0.46870
F          2.44330        2.21850       -0.94010
F          4.47850        1.25600       -0.31450
H          0.52430       -0.34570        0.64180
H          0.76720       -0.93400       -1.05370
H          0.53540        0.81250       -0.72570
H          4.36100       -1.06340        0.47350
H          1.66440       -2.51430        0.59020
H          3.35620       -3.14460        1.05140
