16
3800	1
C          0.91830        0.08730        0.10590
N          2.36190       -0.08010        0.01240
N          2.97290       -1.24190        0.49260
C          3.16160        0.94610       -0.59190
C          4.66080        0.75790       -0.70130
N          2.59060        2.01510       -1.04340
O          3.27400        2.98600       -1.61280
H          0.42710       -0.78270        0.58920
H          0.48680        0.20400       -0.91080
H          0.68420        0.99030        0.70870
H          2.26470       -1.90810        0.87530
H          3.60730       -0.97490        1.27940
H          5.09700        0.64270        0.31240
H          5.17410        1.60980       -1.19170
H          4.87410       -0.15550       -1.29440
H          2.81540        3.76890       -1.94570
