11
3868	1
N          0.92050        0.20840       -0.10080
C          2.32130       -0.03620        0.22230
C          2.70860       -1.42780       -0.20470
F          2.58530       -1.76730       -1.51590
C          3.17160       -2.33650        0.66530
F          3.31200       -2.03900        1.98500
F          3.50890       -3.57820        0.22890
H          0.68570        1.19300        0.16180
H          0.32140       -0.42680        0.47580
H          2.48390        0.13140        1.31010
H          2.95550        0.68710       -0.33340
