19
3795	1
C          1.11000        0.19580       -0.02790
N          2.54170        0.05380        0.12780
C          3.12930       -1.00230        0.60000
C          2.30240       -2.20370        1.03530
N          4.56740       -1.00990        0.70100
C          5.28050       -2.16610        1.22250
C          5.31870        0.16130        0.27310
H          0.89100        1.19690       -0.45250
H          0.60340        0.11440        0.95700
H          0.71800       -0.57420       -0.72550
H          1.60440       -1.90410        1.84450
H          2.90250       -3.04770        1.42160
H          1.71820       -2.58800        0.17350
H          5.07760       -3.05370        0.58680
H          4.96320       -2.36620        2.26770
H          6.37960       -2.00980        1.23340
H          5.00930        1.04480        0.87100
H          5.12320        0.36050       -0.80200
H          6.41370        0.02990        0.40150
