10
3830	2
N          3.22170        1.08390        0.68440
C          2.54330        0.15430       -0.03640
O          1.32700        0.10050        0.06380
C          3.22090       -0.81050       -0.95130
F          2.44410       -1.70070       -1.62640
C          4.54790       -0.85210       -1.14710
F          5.07230       -1.76900       -2.00210
H          2.70640        1.72810        1.30280
H          4.24330        1.17600        0.64060
H          5.22980       -0.17890       -0.64790
