18
3859	1
C          2.14460       -0.62430        1.33850
C          2.80740        0.12900        0.18950
C          3.24310       -0.84110       -0.89080
F          2.24990       -1.57530       -1.46590
C          4.52580       -1.02250       -1.32070
C          5.72890       -0.28190       -0.77490
C          4.81480       -2.02450       -2.41480
H          1.79300        0.09820        2.10520
H          2.87230       -1.31880        1.81040
H          1.26960       -1.20420        0.97460
H          3.61180        0.74400        0.61960
H          2.07040        0.83130       -0.25470
H          5.54150        0.44670        0.02710
H          6.21890        0.26980       -1.60440
H          6.45230       -1.02090       -0.37100
H          3.91160       -2.54830       -2.78990
H          5.51810       -2.79420       -2.03320
H          5.28620       -1.50470       -3.27520
