17
3860	1
C          1.04790        0.07320       -0.07360
C          2.55230        0.08640        0.07010
C          3.07650        0.30570        1.47410
C          3.33930       -0.09730       -1.02900
F          2.74350       -0.29480       -2.23770
C          4.85240       -0.10020       -1.03350
N          5.33400       -1.38660       -1.52270
H          0.62430       -0.73820        0.55510
H          0.70120       -0.08940       -1.11480
H          0.63650        1.04490        0.27200
H          2.68110       -0.49570        2.13340
H          2.70600        1.28250        1.84960
H          4.16890        0.30560        1.59980
H          5.33620        0.11270       -0.06640
H          5.18610        0.69810       -1.73050
H          5.08090       -2.12850       -0.82950
H          6.37740       -1.35180       -1.58470
