14
3880	1
C          1.01020        0.03170       -0.03020
C          2.51270       -0.02340       -0.02160
F          3.18500        1.16020       -0.06580
C          3.20760       -1.18810        0.02750
C          2.52760       -2.54140        0.07840
C          4.69220       -1.15100        0.03240
O          5.33820       -2.18630        0.07620
H          0.67310        1.08850       -0.07360
H          0.60380       -0.42540        0.89660
H          0.61150       -0.49750       -0.92120
H          1.42140       -2.49600        0.07190
H          2.83510       -3.07140        1.00420
H          2.84280       -3.14300       -0.79990
H          5.22140       -0.20400       -0.00300
