17
3809	1
C          0.92410        0.06310        0.02560
C          2.43270       -0.01110        0.04580
C          3.19910       -1.04610        0.50950
C          2.57710       -2.30640        1.08800
C          4.72060       -0.98710        0.46900
N          5.48920       -2.08110        0.95920
N          5.36500        0.02950        0.00120
H          0.60790        0.94990        0.61330
H          0.37040       -0.79960        0.42290
H          0.59320        0.20540       -1.02410
H          2.90090        0.87010       -0.35910
H          1.48030       -2.35370        1.11950
H          2.91830       -2.43240        2.13700
H          2.90340       -3.18190        0.48840
H          5.05400       -2.92740        1.34760
H          6.51860       -2.03700        0.92990
H          4.93710        0.87850       -0.38070
