15
3863	1
C          2.12460       -0.05700        1.55270
C          2.77120        0.09610        0.17980
C          3.20420       -1.25540       -0.34940
F          2.22880       -2.18840       -0.52400
C          4.47210       -1.60860       -0.66580
C          5.68890       -0.72580       -0.54360
F          4.67930       -2.86860       -1.13400
H          1.77750        0.93400        1.91450
H          2.86040       -0.46380        2.27900
H          1.24880       -0.73860        1.49950
H          3.58230        0.83500        0.27470
H          2.02610        0.52160       -0.52550
H          5.51800        0.29130       -0.15860
H          6.15790       -0.62730       -1.54450
H          6.41500       -1.21670        0.13710
