16
3790	1
C          1.00820       -0.25730        0.11490
C          2.47930        0.13150       -0.09030
O          2.73050        0.35900       -1.45680
C          2.87540        1.33160        0.75250
C          2.79600        1.25650        2.25860
N          3.29620        2.40660        0.17520
O          3.65650        3.46470        0.87170
H          0.76730       -1.14670       -0.50510
H          0.33990        0.57820       -0.18470
H          0.80320       -0.51320        1.17450
H          3.11030       -0.72750        0.22380
H          2.10990        1.06980       -1.76810
H          2.44690        0.26070        2.60010
H          2.09400        2.02900        2.63690
H          3.80230        1.43160        2.69410
H          3.96830        4.25890        0.41770
