16
3879	1
C          0.81380       -0.09250        0.27150
C          2.31060        0.00860        0.16620
F          2.97200        0.58560        1.20780
C          3.01070       -0.44500       -0.90660
C          2.32360       -1.09630       -2.09440
C          4.49960       -0.29500       -0.91020
C          5.27660       -0.70960       -1.91980
H          0.47450        0.34400        1.23420
H          0.49720       -1.15650        0.24210
H          0.33130        0.47140       -0.55450
H          1.22260       -1.16510       -2.00550
H          2.70670       -2.13060       -2.22050
H          2.54160       -0.51170       -3.01260
H          4.98840        0.17110       -0.05940
H          4.86690       -1.18390       -2.80400
H          6.35150       -0.57130       -1.86120
