14
3939	1
F          0.83210        0.29340       -0.29610
C          2.16290       -0.04220       -0.12000
C          2.68740        0.46170        1.22490
F          4.02030        0.13860        1.42710
C          2.45400        1.91170        1.59960
N          2.02310        1.53360        2.95060
C          1.89400        0.15020        2.47820
H          2.76000        0.40740       -0.94060
H          2.26550       -1.14650       -0.16560
H          1.59290        2.35790        1.04780
H          3.36350        2.54820        1.57750
H          1.08090        1.93660        3.15980
H          0.82210       -0.06690        2.25700
H          2.36200       -0.60120        3.14840
