17
3933	1
N          2.09510        0.12480        1.79510
C          2.14450        0.00440        0.33910
C          2.71610        1.25830       -0.35160
O          2.76540        1.05750       -1.75020
C          2.15390        2.63760       -0.02120
N          3.50730        3.19780        0.10320
C          4.03170        1.82630        0.16530
H          1.82170       -0.80450        2.18980
H          1.33880        0.79310        2.06390
H          1.12470       -0.20620       -0.05320
H          2.79980       -0.85530        0.07680
H          3.15740        1.85530       -2.19570
H          1.65270        2.68810        0.97110
H          1.54560        3.10130       -0.82700
H          3.62590        3.67700        1.02670
H          4.22090        1.55620        1.23150
H          4.91300        1.64470       -0.48670
