20
3924	1
C          3.53500       -0.21240        1.22880
C          2.49210        0.02130        0.13020
C          2.98300       -0.12940       -1.33440
C          1.82770        0.13230       -2.32510
C          4.23620        0.61360       -1.78200
N          4.74860       -0.58410       -2.46300
C          3.74820       -1.38320       -1.74080
H          3.05170       -0.07290        2.21870
H          4.36840        0.51410        1.16160
H          3.93530       -1.24470        1.19820
H          2.08970        1.04940        0.26070
H          1.66060       -0.69770        0.29680
H          1.43150        1.16060       -2.18410
H          1.00350       -0.59130       -2.14740
H          2.15430        0.03030       -3.38360
H          4.92200        0.87020       -0.94500
H          4.06790        1.47850       -2.46030
H          5.71330       -0.81360       -2.12350
H          4.24650       -1.89420       -0.88780
H          3.19390       -2.09900       -2.38640
