16
3982	1
O          0.95380        0.13120        0.02490
C          2.35840        0.04770       -0.03970
C          3.12890        0.98820        0.88110
N          3.88310       -0.12580        1.46890
C          2.97130       -1.06330        0.80220
C          2.87590        0.07520       -1.46010
C          2.62460        1.11360       -2.26220
H          0.68500        0.22090        0.97630
H          2.48140        1.45730        1.65910
H          3.78730        1.72150        0.36620
H          3.72940       -0.15520        2.50500
H          2.24760       -1.47490        1.54560
H          3.50650       -1.85790        0.23850
H          3.45830       -0.75760       -1.84460
H          2.04360        1.96030       -1.90850
H          3.00190        1.11780       -3.27960
