18
3958	1
C          0.78630        0.09580        0.13800
N          2.25530        0.00360        0.09390
C          3.00680        0.03960        1.37700
C          4.51760       -0.09410        1.14870
C          2.57800        1.15070        2.31710
O          1.85960        0.24200        3.12770
C          2.43870       -0.86030        2.45850
H          0.39340        0.01920       -0.89770
H          0.44260        1.06650        0.54670
H          0.33390       -0.73690        0.70870
H          2.60320        0.78080       -0.51550
H          4.87980        0.74220        0.51440
H          4.73480       -1.05500        0.63640
H          5.07450       -0.07140        2.11010
H          1.95290        1.94720        1.86570
H          3.41860        1.56000        2.92350
H          1.71260       -1.62570        2.12030
H          3.22060       -1.28960        3.12650
