14
3903	1
C          0.85700        0.06800        0.00420
C          2.35350        0.05040       -0.06710
C          3.04730       -0.27150       -1.37160
C          3.07400        0.32630        1.05110
F          2.43140        0.61360        2.21540
C          4.48000        0.32630        1.05110
C          5.67010        0.32630        1.05110
H          0.39510       -0.17510       -0.98090
H          0.50070        1.07510        0.30790
H          0.50070       -0.68230        0.74160
H          2.30900       -0.47160       -2.18290
H          3.67830       -1.17510       -1.25540
H          3.67830        0.58250       -1.68900
H          6.72830        0.32620        1.05060
