17
3981	1
N          0.86580        0.15480        0.17640
C          2.32180        0.06300        0.03480
C          3.11780        1.01500        0.91820
N          3.92700       -0.08470        1.45780
C          2.98060       -1.03490        0.86160
C          2.78300        0.08190       -1.40730
C          2.49760        1.11210       -2.20930
H          0.58760        0.14510        1.18500
H          0.42860       -0.67570       -0.28540
H          2.49700        1.45600        1.73470
H          3.72580        1.77380        0.37820
H          3.85390       -0.11000        2.50270
H          2.30250       -1.43080        1.65530
H          3.48010       -1.84270        0.28360
H          3.35190       -0.75290       -1.80690
H          1.92810        1.96090       -1.84250
H          2.83520        1.10620       -3.24060
