18
3926	1
C          0.91990        0.04370        0.24600
C          2.44650        0.06220        0.09250
C          2.89280        0.05240       -1.39070
O          4.29180        0.02760       -1.52910
C          3.17430        1.10680        0.92840
N          4.07590        0.09470        1.49380
C          3.20420       -0.95060        0.94120
H          0.47920        0.93800       -0.24350
H          0.62500        0.04860        1.31740
H          0.50230       -0.86950       -0.22830
H          2.46020        0.93180       -1.92310
H          2.48290       -0.85000       -1.89230
H          4.59140        0.96400       -1.66530
H          2.53150        1.52460        1.73990
H          3.70410        1.89850        0.35680
H          4.01210        0.09950        2.53970
H          2.57410       -1.37870        1.75710
H          3.76040       -1.72900        0.37510
