11
3904	1
C          1.04170        0.06480        0.00040
C          2.54110        0.06280       -0.00060
F          3.20240        1.13410        0.51950
C          3.22650       -0.97590       -0.50490
F          2.56860       -2.04690       -1.02490
C          4.63250       -0.97590       -0.50490
C          5.82270       -0.97590       -0.50490
H          0.66490        1.00420        0.45650
H          0.66100       -0.79590        0.59000
H          0.66100       -0.00420       -1.04060
H          6.88100       -0.97570       -0.50480
