18
3929	1
N          2.52160       -0.41330        1.58450
C          2.38830       -0.08560        0.16620
C          2.91050       -1.20880       -0.76120
N          2.71990       -0.87920       -2.17700
C          4.30770       -1.78130       -0.56260
N          3.80530       -3.15550       -0.69130
C          2.44550       -2.63380       -0.50410
H          2.03990        0.33140        2.13850
H          3.52890       -0.38200        1.85810
H          2.92840        0.86270       -0.04990
H          1.31050        0.07130       -0.05790
H          3.23590        0.00280       -2.40110
H          1.70320       -0.72150       -2.36640
H          4.70380       -1.63750        0.46720
H          5.04970       -1.50070       -1.34140
H          4.09180       -3.73100        0.13590
H          2.13570       -2.79270        0.55610
H          1.70300       -3.03170       -1.22940
