19
3914	1
C          0.87970       -0.09360        0.55960
C          2.25560       -0.07260       -0.11140
C          3.05400       -1.39790       -0.05850
O          4.28420       -1.23750       -0.72850
C          3.27600       -2.11630        1.28620
C          3.18860       -3.43730        0.51640
C          2.39520       -2.69150       -0.56130
H          0.41220        0.90840        0.45680
H          0.96360       -0.31540        1.64240
H          0.20540       -0.82860        0.07660
H          2.86120        0.72060        0.37780
H          2.11560        0.20770       -1.17780
H          4.85870       -0.66730       -0.15320
H          2.36470       -2.04560        1.92020
H          4.19200       -1.90100        1.87650
H          2.72810       -4.31890        1.01080
H          4.19910       -3.67980        0.11090
H          1.32490       -2.72950       -0.26150
H          2.52540       -2.98790       -1.62400
