20
3960	1
C          3.63360       -0.31660        1.08030
C          2.62210        0.00050       -0.02910
C          3.10970       -0.14330       -1.50350
C          1.95010        0.21160       -2.46160
C          4.38940        0.59290       -1.89180
C          4.74520       -0.72780       -2.56140
N          3.66040       -1.45370       -1.88370
H          3.14120       -0.17050        2.06480
H          4.50630        0.36380        1.04840
H          3.97910       -1.36780        1.04070
H          2.28130        1.04760        0.12470
H          1.74670       -0.66920        0.11640
H          1.62540        1.26130       -2.29670
H          1.08490       -0.46130       -2.28060
H          2.24710        0.10650       -3.52710
H          5.07580        0.71090       -1.03120
H          4.31660        1.48900       -2.54540
H          5.77070       -1.10610       -2.35010
H          4.51810       -0.69780       -3.65140
H          4.09340       -1.92220       -1.05760
