16
3920	1
O          0.99450        0.21460       -0.38720
C          2.31620       -0.11910       -0.06290
C          2.75520        0.58520        1.22520
F          4.06610        0.25220        1.54390
C          2.57650        2.10230        1.33010
C          2.27300        1.88740        2.81610
C          1.87830        0.44760        2.47280
H          0.78490       -0.27520       -1.22440
H          2.99520        0.19760       -0.88530
H          2.39800       -1.21770        0.09210
H          1.62760        2.40560        0.82870
H          3.42080        2.76530        1.04540
H          1.52860        2.54480        3.31330
H          3.23810        1.86670        3.37580
H          0.80240        0.44980        2.17940
H          2.10260       -0.35880        3.20280
