16
3970	1
C          0.90220        0.05930        0.00150
C          2.43270        0.05900       -0.05180
C          3.14100        1.12720        0.79080
C          4.15970        0.05970        1.20050
C          3.14100       -1.00830        0.79190
C          2.92340        0.05870       -1.44800
N          3.30370        0.06470       -2.54110
H          0.54840        0.05990        1.05510
H          0.50130       -0.84620       -0.50120
H          0.50180        0.96470       -0.50200
H          2.52100        1.36270        1.68630
H          3.52200        2.04810        0.29700
H          4.52120        0.06030        2.25190
H          4.99370        0.05940        0.46300
H          2.52090       -1.24290        1.68770
H          3.52220       -1.92960        0.29910
