17
4066	1
C          0.82500        0.09990       -0.25330
C          2.33350       -0.01780       -0.01740
C          2.78970       -0.05030        1.45880
O          4.17390       -0.23090        1.61090
C          3.10750       -0.85740       -1.00040
C          3.16460        0.70400       -1.06600
O          4.40940        1.16520       -0.62380
H          0.30790       -0.76580        0.21110
H          0.57000        0.12150       -1.33530
H          0.44880        1.03460        0.21280
H          2.23870       -0.85450        1.99910
H          2.50380        0.90480        1.94690
H          4.33670       -1.20960        1.64430
H          2.49170       -1.27130       -1.82880
H          4.13960       -1.22440       -0.81340
H          2.90070        0.94770       -2.11800
H          4.22110        2.03600       -0.18890
