18
4046	1
C          0.73740       -0.05840       -0.57140
C          2.26170       -0.22900       -0.47990
C          2.88340       -0.17170        0.93730
C          4.41390       -0.25970        1.04830
O          5.02460        0.83020        0.40810
C          2.89200       -1.03150       -1.52510
N          3.03120        0.46030       -1.52000
H          0.24190       -0.87220       -0.00170
H          0.36780       -0.09430       -1.61890
H          0.44570        0.91700       -0.12880
H          2.44960       -1.00680        1.52800
H          2.56210        0.77970        1.41380
H          4.78200       -1.23590        0.65810
H          4.69870       -0.23150        2.12130
H          5.58050        0.46740       -0.32990
H          2.31010       -1.32680       -2.42690
H          3.90950       -1.44610       -1.38980
H          2.38700        0.85090       -2.24670
