17
3988	1
C          0.87150        0.16860        0.10580
C          2.40090        0.08840       -0.04990
C          3.14680        1.01800        0.88480
O          3.57050       -0.05670        1.69530
C          3.01960       -1.00130        0.80310
C          2.87800        0.11650       -1.48610
C          2.66170        1.17570       -2.27250
H          0.57000        0.13380        1.17550
H          0.39520       -0.68540       -0.42100
H          0.48760        1.11500       -0.32950
H          2.49380        1.72110        1.44770
H          4.04180        1.49300        0.42270
H          2.28220       -1.65960        1.31390
H          3.85230       -1.54920        0.30730
H          3.41070       -0.73850       -1.89240
H          2.13690        2.04950       -1.89910
H          3.01540        1.17040       -3.29830
