12
4015	1
F          0.87290       -0.00900        0.28190
C          2.23350       -0.01210        0.13050
C          3.01990        0.99690        0.96200
O          3.88800       -0.00860        1.44260
C          3.02070       -1.01550        0.96200
C          2.55670        0.00170       -1.30220
C          2.80750       -0.01360       -2.48110
H          2.43410        1.43560        1.81000
H          3.52600        1.81670        0.42490
H          2.43450       -1.45360        1.80970
H          3.52640       -1.83400        0.42450
H          2.99490       -0.00840       -3.52250
