20
4034	1
C          1.27110        0.90010        0.71630
N          2.69350        1.24160        0.69050
C          3.25020        1.05400       -0.65300
C          4.72910        1.47690       -0.67100
C          5.05770        2.94690       -0.37970
C          5.78150        0.43090       -0.37100
C          5.51710        0.89770       -1.82530
H          0.87570        1.05030        1.74290
H          1.11400       -0.16310        0.42950
H          0.70190        1.56120        0.02780
H          3.19540        0.60950        1.35760
H          2.70060        1.68940       -1.38230
H          3.13400       -0.00940       -0.96610
H          4.73550        3.20130        0.65130
H          4.51480        3.59870       -1.09600
H          6.14530        3.15830       -0.46790
H          5.27190       -0.48670       -0.00580
H          6.59920        0.91290        0.20690
H          5.15970       -0.01570       -2.34700
H          6.47410        1.36450       -2.14230
