17
4031	1
N          1.07280        0.08710       -0.04270
C          2.52440        0.07650       -0.18960
C          3.13980       -1.00140        0.70400
C          4.66590       -1.01320        0.55380
F          5.37780        0.10600        0.95270
C          5.31110       -2.27120        1.08950
C          5.34160       -1.95900       -0.41710
H          0.68070        0.81940       -0.67790
H          0.82900        0.35550        0.93870
H          2.93440        1.07560        0.08060
H          2.77950       -0.13750       -1.25080
H          2.70510       -1.98880        0.43040
H          2.88940       -0.79180        1.76630
H          4.73430       -3.21810        1.16090
H          6.37780       -2.25090        1.39780
H          4.54330       -2.36260       -1.07630
H          6.19220       -1.38570       -0.84380
