18
4049	1
C          1.01660       -2.09170       -1.21470
O          2.42100       -2.20650       -1.19660
C          2.95340       -1.30250       -0.24860
C          4.48870       -1.42820       -0.12820
C          5.19590       -0.50760        0.86750
C          5.12270       -2.71390       -0.39980
N          5.23750       -1.58670       -1.37960
H          0.62220       -2.76410       -2.00380
H          0.69360       -1.05990       -1.47900
H          0.57450       -2.42350       -0.24930
H          2.53440       -1.51200        0.76220
H          2.72720       -0.25270       -0.54320
H          4.83210       -0.72260        1.89390
H          4.96850        0.55050        0.62010
H          6.29930       -0.64140        0.84600
H          4.55780       -3.54340       -0.88000
H          6.13900       -2.90260        0.00610
H          4.58570       -1.77470       -2.17510
