17
4052	1
C          0.74710       -0.22950       -1.01760
C          2.05710       -0.35100       -0.23560
C          2.14830        0.11440        1.22870
C          1.33090       -0.75870        2.18760
O         -0.03860       -0.70510        1.89570
C          3.02880       -1.36860       -0.69190
O          3.17070        0.01920       -0.99070
H         -0.01980       -0.90820       -0.59450
H          0.88670       -0.49820       -2.08700
H          0.38020        0.81680       -0.96610
H          1.81130        1.17070        1.30100
H          3.20860        0.08050        1.56480
H          1.50180       -0.42920        3.23770
H          1.67390       -1.81300        2.12030
H         -0.36370        0.17670        2.21560
H          2.85550       -1.89440       -1.65430
H          3.87400       -1.64910       -0.02900
