18
4030	1
C          1.16420       -0.05310        0.15630
C          2.67110        0.16840        0.06440
C          3.23420       -0.39240       -1.24420
C          4.75110       -0.17420       -1.30720
F          5.55020       -0.81810       -0.37700
C          5.32550       -0.32110       -2.69810
C          5.32900        1.04650       -1.99190
H          0.78450        0.36330        1.11310
H          0.93090       -1.13870        0.12330
H          0.64670        0.45730       -0.68380
H          3.16040       -0.33280        0.92800
H          2.87860        1.25950        0.12080
H          2.72750        0.10300       -2.10270
H          3.03090       -1.48380       -1.30130
H          4.68930       -0.16250       -3.59490
H          6.40060       -0.56990       -2.82260
H          4.48510        1.75000       -2.15840
H          6.20520        1.34530       -1.37750
