20
4022	1
C          1.18800       -0.26100       -0.12060
C          2.67030       -0.31090        0.23770
C          3.51340        0.44650       -0.79390
C          5.00960        0.41440       -0.42720
N          5.70650       -0.86950       -0.45270
C          5.83490        1.50070       -1.07860
C          5.61930        1.48710        0.44960
H          0.60180       -0.81480        0.64280
H          1.01480       -0.73060       -1.11240
H          0.83200        0.79100       -0.14740
H          2.98680       -1.37480        0.28070
H          2.81280        0.14660        1.24100
H          3.15510        1.49900       -0.84280
H          3.37860       -0.00970       -1.79870
H          5.52550       -1.33820       -1.36970
H          5.33540       -1.47580        0.31260
H          5.35640        2.44440       -1.41600
H          6.92990        1.36300       -1.20500
H          4.78000        2.07370        0.88100
H          6.37100        0.98990        1.10000
