19
4020	1
C          0.72540        0.01900       -0.54910
C          2.19480        0.02120       -0.10260
C          2.50330        0.13720        1.40510
C          1.97410       -1.05780        2.20400
O          2.59290       -2.24810        1.79510
C          3.22490       -0.62420       -1.00680
C          3.06770        0.91540       -0.95860
H          0.21370       -0.88360       -0.15720
H          0.62470        0.01390       -1.65600
H          0.21480        0.92270       -0.15520
H          2.02910        1.06440        1.79300
H          3.59870        0.21960        1.58310
H          0.86610       -1.13820        2.12610
H          2.20010       -0.90110        3.27990
H          2.06080       -2.60300        1.03600
H          2.68480       -1.19880       -1.78970
H          4.00410       -1.09740       -0.37160
H          2.75560        1.18970       -1.98900
H          4.04540        1.27910       -0.57620
