18
4054	1
C          1.48410       -0.37060        0.38870
N          2.91290       -0.06530        0.46530
C          3.43060        0.33330       -0.84720
C          4.91380        0.70040       -0.73520
C          5.33770        1.88120        0.13710
C          5.91030       -0.36140       -0.98990
O          5.59110        0.64250       -1.95290
H          1.11650       -0.66280        1.39480
H          1.29660       -1.21210       -0.31410
H          0.91390        0.52500        0.06040
H          3.41650       -0.92690        0.78250
H          2.88190        1.22770       -1.21590
H          3.28510       -0.49070       -1.58330
H          5.07710        1.67340        1.19570
H          4.80380        2.79660       -0.19340
H          6.43120        2.06770        0.07000
H          5.57540       -1.33290       -1.41020
H          6.96740       -0.20030       -0.69140
