12
3987	1
F          0.82810        0.07580        0.20740
C          2.19640        0.07630        0.00150
C          2.99350        1.09380        0.79810
N          3.97240        0.07640        1.19830
C          2.99420       -0.94140        0.79700
C          2.58200        0.07650       -1.42060
N          2.88330        0.07400       -2.53810
H          2.42030        1.42270        1.69950
H          3.41760        1.94880        0.22780
H          4.11330        0.07490        2.23570
H          2.42100       -1.27160        1.69780
H          3.41900       -1.79550        0.22580
