19
4088	1
C          2.88620       -0.72740       -1.53080
C          2.57290       -0.01750       -0.21010
C          3.08950       -0.68390        1.08580
O          2.73130       -0.04370        2.28140
C          3.07590       -2.21600        1.19510
C          4.40520       -1.43770        1.13600
C          5.20650       -1.39050        2.44200
H          2.44900       -0.14300       -2.36770
H          2.43580       -1.74030       -1.55570
H          3.97860       -0.79410       -1.70550
H          1.46870        0.07320       -0.12670
H          2.99650        1.00830       -0.25710
H          1.79000       -0.30140        2.46040
H          3.08950       -2.88170        0.30830
H          2.92630       -2.63750        2.21240
H          4.94510       -1.49400        0.17010
H          4.56360       -1.36710        3.34750
H          5.85120       -0.48740        2.43990
H          5.85450       -2.28950        2.49990
