14
4111	1
N          0.98220        0.16930       -0.01440
C          2.43660        0.27860        0.13810
C          3.14670       -0.73150       -0.78990
C          3.24450        0.76040       -1.05680
F          2.48700        1.24710       -2.11010
C          4.52260        1.51140       -0.68630
F          4.21400        2.82440       -0.38390
H          0.67670       -0.76680        0.33600
H          0.66200        0.26900       -1.00360
H          2.85320        0.10290        1.15360
H          2.59010       -1.17410       -1.64380
H          4.16220       -1.08980       -0.51520
H          5.21660        1.49390       -1.55200
H          5.03430        1.05160        0.18640
