16
4157	1
C          0.84080        0.03640       -0.08810
C          2.35260        0.29600       -0.01800
O          2.68480        1.22910       -1.01210
C          2.91650        0.79320        1.33820
F          4.29590        0.87870        1.43210
C          2.14970        1.69560        2.28120
C          2.32790        0.19610        2.60030
H          0.58060       -0.33230       -1.10320
H          0.25720        0.96190        0.09020
H          0.53290       -0.74640        0.63400
H          2.83810       -0.68250       -0.24400
H          3.62040        1.04180       -1.28760
H          1.23960        2.04560        1.75770
H          2.88430        2.42330        2.68830
H          1.28450       -0.17080        2.67180
H          2.95330        0.17940        3.51800
