11
4182	1
F          2.67520        0.36440       -1.38410
C          2.19940        0.03510       -0.12510
F          0.82060        0.12880       -0.12940
F          2.55530       -1.27130        0.15050
C          2.76040        0.94440        0.98270
C          4.06830        1.55800        0.77610
N          2.83310        2.37600        0.64760
H          2.44830        0.79330        2.03760
H          4.57770        1.50720       -0.21190
H          4.61050        1.89760        1.68310
H          2.64490        2.52630       -0.37040
