15
4158	1
C          2.48490       -0.23330       -1.62620
C          2.40750       -0.00390       -0.11150
F          1.07750        0.14280        0.24170
C          3.03590       -1.08260        0.80330
F          2.89340       -0.88450        2.16670
C          2.74440       -2.52610        0.44380
C          4.18520       -1.98000        0.39300
H          2.00530        0.62260       -2.14660
H          1.94160       -1.15250       -1.92400
H          3.53500       -0.28520       -1.97640
H          2.92660        0.95300        0.10890
H          2.56340       -2.86530       -0.59580
H          2.76480       -3.28870        1.25110
H          4.59930       -1.60220       -0.56060
H          4.83350       -2.09160        1.28850
