18
4089	1
C          1.00500       -0.03890       -0.27760
C          2.52370        0.03050       -0.08800
C          3.37500       -0.83440       -1.02240
C          3.31680        0.68820       -1.20320
O          2.65630        1.00880       -2.39630
C          4.67000        1.35930       -0.93980
N          4.50710        2.80460       -0.83480
H          0.59770       -0.84140        0.37130
H          0.70870       -0.25580       -1.32580
H          0.55390        0.92760        0.02740
H          2.94780        0.26510        0.91190
H          2.70380       -1.45890       -1.65000
H          4.14360       -1.30070       -0.37010
H          2.09110        1.79560       -2.18440
H          5.36770        1.12160       -1.77180
H          5.11550        0.97980        0.00560
H          4.18640        3.18200       -1.75600
H          5.44120        3.22940       -0.63380
