16
4097	1
N          1.23860        0.53960        0.96100
C          2.35670        0.12320        0.11720
C          2.97690        1.28220       -0.68890
O          4.04750        0.94180       -1.52600
C          2.33870        2.64460       -0.92450
C          3.34900        2.46090        0.21190
O          4.52170        3.14470       -0.12730
H          0.95040       -0.27450        1.54940
H          0.42050        0.77230        0.35420
H          2.01130       -0.66300       -0.58780
H          3.15360       -0.31670        0.75560
H          3.63690        0.72480       -2.40230
H          1.25460        2.56360       -0.71300
H          2.70270        3.03160       -1.90100
H          2.81030        2.80740        1.11940
H          5.25600        2.61330        0.27410
