17
4123	1
C          1.89210        0.29080       -1.27170
N          3.17090        0.14900       -0.57420
C          3.20000        0.97690        0.64640
C          2.36880        0.49090        1.84300
C          4.61840        1.36190        1.03860
C          3.63630        2.42520        0.50330
F          3.01160        3.20950        1.45870
H          1.90210       -0.33660       -2.18780
H          1.71970        1.34740       -1.57110
H          1.05380       -0.05950       -0.63520
H          3.92730        0.42490       -1.24460
H          2.64100       -0.55890        2.08060
H          1.28780        0.53680        1.60170
H          2.54150        1.10980        2.74930
H          5.44000        1.36450        0.29150
H          4.84100        1.67660        2.08080
H          3.55580        2.70230       -0.56920
