19
4121	1
C          1.12670        0.11260       -1.25600
N          1.39540       -0.67110       -0.04930
C          2.76590       -1.21760       -0.07380
C          3.90480       -0.21310        0.17400
C          2.89700       -2.45810        0.79790
C          2.95090       -2.58040       -0.74650
N          4.26980       -2.71370       -1.37380
H          0.08320        0.49060       -1.22420
H          1.24820       -0.51090       -2.16870
H          1.79960        0.99310       -1.31240
H          0.67790       -1.43320       -0.00250
H          3.69250        0.35950        1.10080
H          3.97960        0.49540       -0.67540
H          4.89350       -0.69960        0.29780
H          2.00100       -3.04790        1.08630
H          3.88970       -2.76190        1.19130
H          2.06740       -2.74720       -1.39930
H          5.06150       -2.70490       -0.69380
H          4.39670       -1.96230       -2.08900
