15
4144	1
C          0.77860        0.06350       -0.14930
C          2.29200        0.09160        0.09860
C          3.07530       -0.81920       -0.82230
C          3.17270        0.72340       -0.95860
C          2.76320        0.08410        1.56430
F          4.14290        0.02770        1.67770
F          2.31120        1.22670        2.19800
H          0.53070        0.02130       -1.23200
H          0.31690        0.97740        0.27910
H          0.33640       -0.82680        0.34540
H          2.63250       -1.15380       -1.78480
H          4.10830       -1.13670       -0.56690
H          2.52480        1.23180       -1.70480
H          4.00660        1.25650       -0.45480
H          2.33510       -0.80150        2.07920
