14
4149	1
N          0.85410        0.01160       -0.35140
C          2.29660        0.02040       -0.08600
C          3.06130       -0.91280       -1.00400
C          3.19880        0.62190       -1.14710
C          2.71890       -0.03670        1.38990
F          4.09420       -0.11140        1.53720
F          2.26180        1.09320        2.04220
H          0.63880       -0.02220       -1.37500
H          0.44550        0.89530        0.02880
H          2.61860       -1.23810       -1.96940
H          4.08490       -1.25380       -0.74080
H          2.55420        1.16160       -1.87330
H          4.02620        1.14430       -0.62200
H          2.26370       -0.93150        1.86380
