20
4177	1
C          1.04630       -0.18320        0.12500
C          2.54740        0.10780       -0.05460
C          2.71980        1.22340       -1.10280
C          3.12220        0.62820        1.28930
C          3.22910       -1.17620       -0.63690
C          4.58810       -1.55270       -0.24670
N          3.42320       -2.31560        0.27550
H          0.50630        0.72350        0.47440
H          0.89310       -0.98960        0.87400
H          0.59010       -0.50890       -0.83510
H          2.21310        2.15780       -0.77690
H          2.28420        0.91950       -2.07960
H          3.79770        1.44650       -1.25860
H          2.59110        1.55480        1.59800
H          4.19720        0.88710        1.19360
H          2.99520       -0.09420        2.11930
H          2.88900       -1.54840       -1.62760
H          5.12330       -1.09860        0.61410
H          5.13660       -2.21030       -0.95270
H          3.26530       -2.03970        1.26760
