17
4093	1
N          1.03260       -0.42290        0.74590
C          2.16180        0.02480       -0.06810
C          3.05280       -1.12900       -0.57320
O          4.12870       -0.75040       -1.38760
C          3.13720       -2.51920        0.06060
C          2.25160       -2.28460       -1.17270
N          2.80220       -2.99220       -2.33260
H          0.42020        0.40200        0.93900
H          1.38620       -0.75420        1.67190
H          2.78380        0.73260        0.52230
H          1.77350        0.56900       -0.95670
H          4.88110       -0.57530       -0.76580
H          2.69420       -2.45970        1.07240
H          4.17880       -2.88020       -0.07540
H          1.21950       -2.55920       -0.86800
H          3.83360       -2.86870       -2.45040
H          2.32910       -2.62240       -3.18750
