14
4181	1
C          1.08770       -0.16460        0.21060
C          2.57540        0.08490       -0.01810
F          2.75810        1.41180       -0.36370
F          3.25870       -0.15450        1.16490
C          3.08750       -0.79510       -1.17920
C          4.47970       -1.23310       -1.14560
N          3.38820       -2.19490       -0.83570
H          0.71710        0.49150        1.02650
H          0.91390       -1.22310        0.49970
H          0.51170        0.05800       -0.71310
H          2.62880       -0.71290       -2.18750
H          5.10800       -1.09220       -0.23790
H          4.93410       -1.53360       -2.11260
H          3.35730       -2.33350        0.20050
