17
4139	1
C          1.18870        0.14490       -0.09510
N          2.65630        0.07390        0.03730
C          3.32780       -0.67660       -1.08060
C          3.41720        0.77990       -1.01650
C          2.66990        1.58280       -2.10140
C          4.72790        1.36730       -0.48770
F          4.49180        2.61340        0.06280
H          0.73690       -0.42650        0.74100
H          0.77830       -0.28680       -1.03230
H          0.85200        1.19810        0.00830
H          2.59670       -1.15790       -1.76500
H          4.15450       -1.27330       -0.64060
H          1.77420        1.06800       -2.50240
H          3.35460        1.75090       -2.95870
H          2.36750        2.57000       -1.69410
H          5.45000        1.47180       -1.32440
H          5.18470        0.71840        0.29090
