20
4136	1
C          3.03940       -0.65190       -1.32920
C          2.52500        0.05870       -0.07200
C          2.96330       -0.53530        1.28810
C          2.54550        0.27210        2.53550
C          3.03040       -1.98800        1.45910
N          4.28960       -1.19020        1.24650
C          5.10720       -1.03090        2.46370
H          2.68380       -0.10540       -2.22780
H          2.65500       -1.68910       -1.39600
H          4.14950       -0.66130       -1.34620
H          1.41460        0.08260       -0.10570
H          2.89000        1.10780       -0.11300
H          1.44220        0.39650        2.53060
H          3.01190        1.27910        2.50060
H          2.80930       -0.21310        3.49670
H          2.90870       -2.65750        0.58630
H          2.98220       -2.42640        2.47890
H          6.07060       -1.55720        2.30510
H          4.66360       -1.45570        3.38850
H          5.34340        0.04270        2.62150
