16
4109	1
N          2.80930        0.69040       -1.26600
C          2.53460        0.05610        0.02320
C          3.12720        0.81260        1.23000
F          2.83890        0.28830        2.48000
C          4.35350        1.71380        1.15110
C          2.93770        2.32300        1.15410
N          2.71440        3.05460        2.40380
H          2.25840        0.18990       -2.00050
H          3.81670        0.55790       -1.51010
H          2.92670       -0.98460        0.01790
H          1.43360        0.00530        0.17100
H          4.86810        1.50440        0.19400
H          4.89620        1.59220        2.11340
H          2.86760        2.91350        0.21580
H          2.94140        2.49680        3.25820
H          1.70240        3.31100        2.44570
