12
4271	2
O          1.26650       -0.13400        0.59760
C          2.39650       -0.10830        0.13680
C          3.15080        1.16080       -0.11430
N          4.38550        0.65330       -0.64190
C          4.40670       -0.68880       -0.71110
O          5.37210       -1.30530       -1.13360
C          3.16010       -1.34300       -0.23100
H          3.32570        1.72130        0.82830
H          2.63420        1.79760       -0.86320
H          5.17060        1.25300       -0.93590
H          3.34870       -1.98780        0.65320
H          2.65610       -1.91140       -1.04100
