18
4238	1
C          1.01350       -0.09220        0.05340
C          2.53690       -0.15400        0.16530
C          3.14780        1.09360        0.80780
C          4.43460        0.52110        1.25540
C          5.48510        1.24970        1.64370
C          4.40820       -0.96670        1.24950
N          3.01040       -1.30470        0.94530
H          0.71350        0.77820       -0.56760
H          0.55210        0.00700        1.05870
H          0.63480       -1.01950       -0.42550
H          2.96320       -0.26180       -0.86060
H          2.60260        1.43920        1.71220
H          3.23070        1.90440        0.05110
H          5.43540        2.33410        1.63500
H          6.39830        0.76360        1.97250
H          4.69240       -1.38510        2.24070
H          5.09580       -1.35280        0.46620
H          2.48580       -1.30990        1.85360
