19
4212	1
C          0.90130       -0.06570        0.42170
N          2.31330        0.08660        0.04550
C          2.98080        1.14860        0.82900
C          4.37720        0.62290        1.11940
C          4.03670       -0.81390        1.44420
N          5.20790       -1.68600        1.51720
C          3.09600       -1.14210        0.28750
H          0.35950        0.88920        0.25080
H          0.79740       -0.36040        1.48990
H          0.42560       -0.84350       -0.21300
H          2.46940        1.29250        1.81120
H          2.99080        2.12240        0.29560
H          4.91330        1.17250        1.92220
H          4.98090        0.66100        0.18300
H          3.47510       -0.84640        2.40730
H          5.72990       -1.66870        0.61070
H          4.88880       -2.66610        1.69350
H          2.49170       -2.05920        0.46910
H          3.69900       -1.31500       -0.63190
