11
4278	3
O          1.39420       -0.19290        0.62930
C          2.50750       -0.05030        0.14960
C          3.20300        1.28150       -0.05310
C          4.47680        0.72490       -0.65830
O          5.42850        1.39510       -1.02560
N          4.44340       -0.61300       -0.74800
N          3.26500       -1.07690       -0.26460
H          3.39270        1.80210        0.90890
H          2.65440        1.93280       -0.76550
H          5.19210       -1.21260       -1.12490
H          3.00520       -2.07350       -0.22780
