14
4251	1
C          0.96020       -0.03500        0.22110
C          2.47470        0.07430        0.04570
C          3.09980        1.22710        0.90260
O          3.99410        0.58900        1.74880
C          3.97670       -0.72540        1.53080
O          4.67180       -1.51790        2.14560
N          3.13260       -1.08730        0.57380
H          0.47020        0.88910       -0.15190
H          0.69970       -0.17640        1.29220
H          0.57510       -0.90040       -0.35860
H          2.73320        0.19130       -1.02960
H          2.33960        1.76350        1.51100
H          3.64440        1.94840        0.25660
H          2.98370       -2.05590        0.25330
