16
4247	2
C          1.06380        0.02730        0.10580
C          2.59230        0.03480        0.06680
C          3.19790        1.22070        0.84690
C          4.55960        0.71130        1.34880
C          4.25680       -0.74170        1.43670
O          4.99760       -1.56260        1.95410
N          3.16690       -1.09400        0.74330
H          0.66950        0.93640       -0.39540
H          0.69450        0.00030        1.15330
H          0.68010       -0.86780       -0.42780
H          2.94850        0.02180       -0.98710
H          2.58630        1.32370        1.77430
H          3.18990        2.20970        0.34230
H          4.82740        1.19750        2.31160
H          5.36590        0.83980        0.59530
H          2.89210       -2.07420        0.57840
