15
4253	1
C          0.97880        0.05160        0.06530
C          2.50460        0.07040        0.09550
C          3.08140        1.26050        0.88080
C          4.46120        0.76500        1.31830
C          4.14520       -0.68180        1.41210
O          4.91250       -1.51560        1.86440
O          3.02800       -1.01920        0.75150
H          0.59960        0.95980       -0.44930
H          0.56730        0.01910        1.09670
H          0.62700       -0.84540       -0.48660
H          2.90780        0.07340       -0.94240
H          2.48270        1.33960        1.81890
H          3.05230        2.25040        0.37840
H          4.76800        1.24770        2.27100
H          5.23330        0.89340        0.52970
