15
4254	1
C          1.00870       -0.04390        0.19390
C          2.50640        0.09620       -0.06960
C          3.13560        1.30990        0.70670
N          4.15310        0.68120        1.49670
C          4.11760       -0.68490        1.26600
N          4.89660       -1.52900        1.83800
O          3.18430       -1.03010        0.38230
H          0.47510        0.86360       -0.15980
H          0.81710       -0.17860        1.28010
H          0.61210       -0.92600       -0.35170
H          2.68570        0.20780       -1.16130
H          2.40970        1.81160        1.38290
H          3.59060        2.04420        0.00820
H          4.79240        1.16580        2.14350
H          5.60600       -1.21630        2.51680
