14
4227	2
O          1.05020        0.01600        0.04010
C          2.44690       -0.01490        0.13960
C          3.05110        1.14480        0.94990
N          4.29420        0.57570        1.38480
C          4.26700       -0.76220        1.32410
O          5.15310       -1.45760        1.79510
C          2.98120       -1.29500        0.80280
H          0.83060        0.78590       -0.54620
H          2.92250        0.01480       -0.87150
H          2.45280        1.38950        1.85460
H          3.18100        2.04090        0.30600
H          5.04680        1.10960        1.84430
H          2.37720       -1.61350        1.67980
H          3.07240       -2.11220        0.05510
