16
4223	2
C          1.01370        0.07040       -0.12440
C          2.53090        0.02860        0.02430
C          3.14950        1.19750        0.81270
N          4.40310        0.63760        1.22930
C          4.38380       -0.70060        1.17710
O          5.28380       -1.38700        1.63470
C          3.09390       -1.24610        0.68080
H          0.70930        1.00990       -0.63210
H          0.52930        0.02600        0.87410
H          0.66950       -0.79330       -0.73150
H          3.00290        0.07460       -0.98610
H          2.57100        1.45310        1.72750
H          3.26570        2.08880        0.15920
H          5.16100        1.17910        1.67080
H          2.51200       -1.57500        1.56890
H          3.18250       -2.06200       -0.06860
