9
4316	1
O          1.07190        0.07450        0.05710
C          2.28920        0.04520        0.06380
N          3.08440        1.14490        0.06620
H          2.79660        2.14880        0.06290
N          4.33060        0.70540        0.07380
H          5.18450        1.30670        0.07750
C          4.26010       -0.64990        0.07580
O          5.22650       -1.39060        0.08250
O          3.00940       -1.05450        0.06970
