15
4325	1
N          1.02820       -0.02120        0.15080
C          2.48320       -0.06460        0.03020
C          3.06530       -1.32460        0.69090
C          3.24700       -0.97400        2.17280
F          4.31030       -1.67580        2.71240
C          3.50960        0.48510        2.08710
C          3.08160        0.99570        0.88780
H          0.62130       -0.81520       -0.39500
H          0.67950        0.86630       -0.27940
H          2.79230       -0.01730       -1.03800
H          4.10020       -1.40760        0.28060
H          2.55940       -2.28800        0.46890
H          2.32480       -1.12520        2.77340
H          3.87690        1.09890        2.89880
H          3.07850        2.05320        0.65850
