10
4304	1
N          0.94050       -0.04720        0.01120
C          2.22140       -0.07850        0.01680
N          3.01300        1.01190        0.01900
H          2.72630        2.01610        0.01660
O          4.23900        0.57460        0.02480
C          4.22200       -0.73920        0.02630
O          5.21570       -1.44280        0.03140
N          2.94880       -1.20880        0.02130
H          2.61710       -2.19940        0.02100
H          0.43410        0.85040        0.00800
