10
4381	1
O          0.89450        0.23740        0.26630
N          2.24130        0.16290        0.15120
C          3.10610        1.18930        0.08930
N          4.37080        0.72530       -0.01850
C          4.19350       -0.61620       -0.01480
N          5.14410       -1.46940       -0.09950
O          2.92650       -0.93340        0.08700
H          0.55870        0.22480       -0.66620
H          2.83170        2.23540        0.12150
H          6.12410       -1.16010       -0.17750
