11
4367	1
N          1.02570        0.16720        0.28400
N          2.42530        0.11170        0.17630
C          3.26520        1.16330        0.15520
N          4.54800        0.74530        0.04190
C          4.42980       -0.60000       -0.00150
O          5.37290       -1.36360       -0.10310
N          3.13810       -0.99410        0.08090
H          2.76030       -1.96810        0.07310
H          0.66160        0.69870       -0.53900
H          0.64160       -0.80450        0.24250
H          2.95950        2.19950        0.21810
