13
4351	1
C          1.00370       -0.04060       -0.14960
N          2.42750       -0.07000        0.08300
C          3.23510       -1.27030        0.14020
C          4.56250       -0.62090        0.39970
O          5.61940       -1.21500        0.53630
N          4.44880        0.78040        0.46940
C          3.22550        1.07300        0.28640
H          0.61060       -1.07140       -0.27930
H          0.78730        0.54460       -1.06780
H          0.49370        0.43210        0.71580
H          3.22210       -1.81330       -0.82860
H          2.92430       -1.92730        0.98000
H          2.85000        2.08790        0.28860
