16
4332	1
C          1.19860       -0.08090       -0.18320
N          2.60290       -0.12400        0.14430
C          3.36720       -1.33270        0.30840
C          4.78160       -0.77290        0.66320
N          5.79800       -1.17260       -0.30840
C          4.54660        0.71230        0.61030
N          3.34490        0.99770        0.32680
H          0.79120       -1.10880       -0.29000
H          1.05610        0.46390       -1.13980
H          0.64470        0.44320        0.62350
H          3.36150       -1.90970       -0.64200
H          2.95320       -1.93950        1.14200
H          5.09090       -1.06050        1.69140
H          5.50010       -0.90520       -1.27550
H          5.90990       -2.21170       -0.27230
H          5.29720        1.46800        0.80000
