12
4297	2
C          1.13300       -0.11750        0.14120
C          2.42450       -0.07520       -0.18900
N          3.15510        1.09580       -0.35610
C          4.38860        0.71210       -0.67880
O          5.30000        1.49370       -0.89890
C          4.49330       -0.79130       -0.73140
O          3.18770       -1.16840       -0.40340
H          0.57630        0.80070        0.29950
H          0.62980       -1.07240        0.25370
H          2.81960        2.06520       -0.25350
H          5.21450       -1.17160        0.02230
H          4.76010       -1.14120       -1.75090
