14
4286	1
C          1.14260       -0.06890        0.16460
C          2.43570        0.00660       -0.15760
C          3.25130        1.28920       -0.21710
N          4.55460        0.77500       -0.61040
C          4.49540       -0.62200       -0.75780
N          5.49050       -1.35770       -1.09810
N          3.22320       -1.11210       -0.48920
H          0.58690        0.83010        0.41130
H          0.63660       -1.02890        0.18240
H          3.30630        1.78260        0.77630
H          2.85570        1.98750       -0.98470
H          5.39540        1.35180       -0.75850
H          6.41350       -0.94020       -1.28580
H          2.92020       -2.09670       -0.52620
