13
4292	1
C          1.13860       -0.06800        0.11110
C          2.44910       -0.02090       -0.13780
C          3.31930        1.21470       -0.09380
O          4.57580        0.69860       -0.43000
C          4.50610       -0.63290       -0.64770
N          5.51280       -1.35860       -0.97140
N          3.22100       -1.12940       -0.48180
H          0.59930        0.83640        0.37410
H          0.60240       -1.00980        0.05270
H          3.33810        1.65690        0.92470
H          2.99100        1.96430       -0.84440
H          6.44690       -0.93830       -1.08160
H          2.90820       -2.10560       -0.59010
