9
4317	1
N          0.98130       -0.09450       -0.01810
C          2.26200       -0.11350       -0.01410
N          3.04670        0.98020       -0.01480
H          2.76110        1.98470       -0.01850
O          4.26840        0.53590       -0.00980
C          4.23250       -0.77740       -0.00620
O          5.21360       -1.49800       -0.00110
O          2.99010       -1.20440       -0.00880
H          0.46670        0.79830       -0.02220
