11
4373	1
C          1.00120        0.06270        0.06420
N          2.45660        0.07110        0.06500
N          3.20940        1.16320        0.06330
N          4.48980        0.80810        0.06470
C          4.48490       -0.53790        0.06730
O          5.48400       -1.23350        0.06920
N          3.21900       -1.00670        0.06750
H          2.88720       -1.99730        0.06930
H          0.61090        1.10250        0.06190
H          0.63150       -0.46070        0.97060
H          0.63250       -0.46440       -0.84040
