9
4480	1
F          0.95790       -0.09750       -0.06970
C          2.31270       -0.09930       -0.06250
C          3.13560        1.00930       -0.06010
N          4.40870        0.57640       -0.05250
H          5.27660        1.15710       -0.04890
C          4.31110       -0.77670       -0.05060
O          5.26930       -1.52820       -0.04410
O          3.06180       -1.17860       -0.05660
H          2.83360        2.04820       -0.06360
