9
4402	1
O          1.12740       -0.19400       -0.26830
C          2.31580       -0.11690       -0.00390
O          3.08210       -1.18030        0.31900
C          4.32640       -0.70690        0.54220
O          5.27210       -1.41020        0.85730
C          4.37540        0.74000        0.35550
C          3.09990        1.11430        0.00920
H          5.22890        1.39600        0.46330
H          2.76310        2.11950       -0.20630
