9
4484	1
F          0.88550       -0.03820        0.06650
C          2.23990       -0.06770        0.06070
N          3.02730        1.02900        0.05520
N          4.27300        0.58400        0.05070
H          5.12550        1.18720        0.04590
C          4.21020       -0.75770        0.05360
N          5.22750       -1.53610        0.05080
O          2.96610       -1.16430        0.05980
H          6.18480       -1.15430        0.04600
