13
4432	2
C          1.08540        0.04140        0.05960
C          2.57480        0.11720       -0.04640
N          3.32210       -0.92210       -0.14000
N          4.62680       -0.55760       -0.22170
C          4.72950        0.77230       -0.17940
O          5.79360        1.36760       -0.23490
C          3.37540        1.41260       -0.05640
H          0.74510       -1.01590        0.04490
H          0.62590        0.58070       -0.79450
H          0.75780        0.51310        1.00910
H          5.40930       -1.22280       -0.30380
H          3.13200        2.04550       -0.93550
H          3.26570        1.97700        0.89340
