15
4425	1
C          0.97870       -0.03020       -0.02120
C          2.47540       -0.00380       -0.10670
C          3.23140       -1.09740       -0.16860
C          4.68550       -0.79500       -0.24700
C          4.64260        0.69560       -0.21930
O          5.64500        1.39070       -0.26510
C          3.26590        1.26080       -0.13070
H          0.59230       -1.07190       -0.01660
H          0.54950        0.50540       -0.89340
H          0.65320        0.47480        0.91200
H          2.83140       -2.10350       -0.16260
H          5.12500       -1.17190       -1.19440
H          5.22980       -1.20270        0.63070
H          3.02100        1.87590       -1.02230
H          3.12590        1.84500        0.80330
