9
4464	1
F          0.91470        0.11360       -0.02080
C          2.26970        0.09410       -0.01360
C          3.10810        1.19090       -0.00960
O          4.34720        0.74650       -0.00280
C          4.29290       -0.56640       -0.00250
O          5.27280       -1.28940        0.00300
N          3.01640       -1.02120       -0.00910
H          2.68500       -2.01150       -0.01040
H          2.82000        2.23360       -0.01160
