17
4409	1
C          1.11860        0.05080       -0.03970
C          2.61640        0.07020       -0.08890
C          3.37070       -1.01650       -0.17930
C          4.81810       -0.68900       -0.06980
C          4.80820        0.81300       -0.40330
O          4.90760        0.98350       -1.80290
C          3.43320        1.30800        0.07620
H          0.72490       -0.98330       -0.14010
H          0.71520        0.66800       -0.86920
H          0.77460        0.47190        0.92780
H          2.97350       -2.02310       -0.21060
H          5.47880       -1.24380       -0.77010
H          5.11430       -0.88350        0.98370
H          5.66040        1.37250        0.03700
H          4.16110        0.50650       -2.25190
H          3.09860        2.18000       -0.52630
H          3.42920        1.55610        1.15970
