14
4443	1
C          0.97360        0.03540        0.09190
C          2.46660        0.02280        0.09780
C          3.30300        1.12430        0.10060
N          4.57620        0.68530        0.10610
H          5.44190        1.26960        0.10930
C          4.49120       -0.66000        0.10650
N          5.50660       -1.44220        0.11130
N          3.21800       -1.09440        0.10150
H          2.88310       -2.08400        0.10070
H          0.59240        1.07840        0.09000
H          0.59520       -0.48580        0.99570
H          0.60220       -0.48660       -0.81440
H          3.01010        2.16610        0.09880
H          6.46550       -1.06440        0.11510
