15
4433	1
C          0.96520       -0.03920        0.25390
C          2.43790        0.04480       -0.00660
C          3.23520       -1.00160       -0.19200
O          4.50070       -0.62620       -0.40360
C          4.55400        0.71600       -0.35860
C          5.68320        1.40480       -0.53310
C          3.21070        1.32790       -0.09300
H          0.62130       -1.09550        0.27270
H          0.41750        0.50170       -0.54550
H          0.73640        0.42940        1.23360
H          2.91420       -2.03510       -0.17640
H          6.61690        0.88470       -0.72150
H          5.67710        2.48930       -0.48790
H          2.86690        1.96140       -0.93790
H          3.19020        1.88820        0.86570
