11
4462	1
N          0.90770        0.00360       -0.06030
C          2.31990       -0.01290       -0.05670
C          3.15090        1.08900       -0.05470
O          4.39150        0.64730       -0.05150
C          4.34160       -0.66750       -0.05140
O          5.32440       -1.38660       -0.04880
N          3.06640       -1.12820       -0.05460
H          2.73920       -2.12010       -0.05530
H          0.39880        0.89930       -0.06170
H          0.37940       -0.88060       -0.06150
H          2.85970        2.13100       -0.05560
