14
4415	1
C          1.03670       -0.03960        0.08540
C          2.53030        0.00810       -0.23160
C          3.02510       -1.27870       -0.95150
C          3.56620       -0.69600       -2.20570
F          4.14490       -1.40610       -3.20850
C          3.40010        0.60030       -2.22420
O          2.80420        1.03860       -1.11350
H          0.82340       -0.87920        0.78050
H          0.44600       -0.17900       -0.84540
H          0.72480        0.91060        0.56800
H          3.10870        0.17210        0.70410
H          2.20410       -1.98390       -1.20600
H          3.82860       -1.78880       -0.37850
H          3.70650        1.24740       -3.03510
