10
4450	1
F          1.00740       -0.00180        0.05210
C          2.36240       -0.02020        0.06010
C          3.19510        1.08330        0.06500
N          4.47160        0.65190        0.07260
H          5.33540        1.23870        0.07770
C          4.39070       -0.70270        0.07210
O          5.35980       -1.44080        0.07790
N          3.10760       -1.14010        0.06450
H          2.76810       -2.12770        0.06260
H          2.89510        2.12280        0.06320
