13
4517	2
C          1.03680       -0.04090       -0.06480
C          2.52890       -0.05770       -0.06930
N          3.29480        1.05780       -0.07330
C          4.56610        0.60650       -0.07650
C          4.53890       -0.76880       -0.07430
O          5.60400       -1.59180       -0.07630
N          3.26640       -1.18530       -0.06980
H          2.92190       -2.17130       -0.06720
H          0.66300        1.00460       -0.06530
H          0.66230       -0.55910        0.84240
H          0.65690       -0.56190       -0.96810
H          5.44330        1.23970       -0.08010
H          6.50490       -1.23920       -0.07960
