10
4552	1
N          0.95960       -0.07700       -0.04640
C          2.37060       -0.07890       -0.05330
N          3.12120        1.04270       -0.05900
C          4.38900        0.58710       -0.06440
C          4.35380       -0.78850       -0.06170
F          5.41950       -1.62510       -0.06540
O          3.10200       -1.16940       -0.05490
H          0.44220        0.81360       -0.04550
H          0.44180       -0.96720       -0.04230
H          5.26960        1.21520       -0.06990
