19
4565	1
C          1.01660       -0.05060        0.02310
C          2.54490       -0.10780       -0.04220
C          3.12890       -1.36950        0.60900
C          3.33970       -1.01060        2.08260
C          3.55860        0.46240        1.97950
C          4.08550        1.31370        3.09350
C          3.13340        0.95310        0.82400
H          0.58510       -0.88880       -0.56370
H          0.65470        0.90600       -0.41070
H          0.65550       -0.12830        1.07150
H          2.87830       -0.04900       -1.10160
H          4.16040       -1.45320        0.19040
H          2.62400       -2.33500        0.39330
H          4.20130       -1.58010        2.49310
H          2.42890       -1.17430        2.69770
H          4.33350        0.68500        3.97430
H          3.32010        2.06110        3.39070
H          5.00340        1.84130        2.75940
H          3.12050        2.01060        0.59090
