14
4570	1
O          0.92960        0.11400        0.13680
C          2.32390        0.05410        0.00690
C          2.90520       -1.20810        0.66120
C          3.11050       -0.84570        2.13360
C          3.35020        0.61840        2.01800
F          3.81120        1.39580        3.03180
C          2.92360        1.10980        0.86750
H          0.56300       -0.58910       -0.46030
H          2.62990        0.12690       -1.06130
H          3.93510       -1.30070        0.24070
H          2.38860       -2.16850        0.45140
H          3.96160       -1.42190        2.55570
H          2.19160       -0.99020        2.74130
H          2.91070        2.16810        0.64160
