14
4523	2
C          0.96650       -0.02920        0.08520
C          2.45670       -0.07290        0.08090
N          3.24780        1.01800        0.07740
N          4.49210        0.57660        0.07420
H          5.34010        1.18570        0.07100
C          4.45040       -0.76650        0.07570
C          5.65010       -1.65390        0.07310
N          3.17960       -1.21300        0.08000
H          0.61210        1.02310        0.08540
H          0.58240       -0.54100        0.99190
H          0.57730       -0.54240       -0.81860
H          6.58060       -1.04820        0.06930
H          5.63390       -2.29710       -0.83120
H          5.63970       -2.29470        0.97920
