15
4584	1
C          0.93790       -0.05760        0.05480
C          2.43090       -0.03930       -0.07840
C          3.17600       -1.12320       -0.16480
C          4.55310       -0.73640       -0.28090
O          5.47930       -1.52510       -0.37810
C          4.70960        0.74450       -0.26790
C          3.24400        1.22940       -0.12800
H          0.54660       -1.09750        0.07080
H          0.48420        0.48120       -0.80290
H          0.64530        0.44840        0.99820
H          2.80480       -2.14030       -0.15010
H          5.16330        1.08960       -1.22170
H          5.32640        1.05640        0.60200
H          2.94090        1.84030       -1.00530
H          3.10330        1.80710        0.81080
