16
4571	1
C          1.06090       -0.05440       -0.07730
C          2.55910       -0.03660       -0.11800
C          3.31250       -1.12390       -0.20300
C          4.75850       -0.79780       -0.08690
F          5.16130       -1.02580        1.21720
C          4.74420        0.69730       -0.41420
C          3.37560        1.19980        0.04980
H          0.66670       -1.08830       -0.17840
H          0.66250        0.56200       -0.90960
H          0.71210        0.36820        0.88790
H          2.91450       -2.13020       -0.23610
H          5.41510       -1.34210       -0.79890
H          4.70950        0.74870       -1.52870
H          5.62720        1.28860       -0.09210
H          3.05310        2.05830       -0.57810
H          3.36260        1.46920        1.12790
