9
4550	1
O          0.91230        0.01940        0.03050
C          2.25790        0.02430        0.03450
C          3.07690        1.12860        0.03340
N          4.35390        0.70010        0.03860
C          4.25370       -0.64740        0.04260
F          5.32010       -1.48290        0.04840
O          3.00260       -1.04980        0.04010
H          0.41240        0.84770        0.02640
H          2.77420        2.16730        0.02920
