9
4561	1
N          1.19560        0.01630        0.08290
C          2.60410       -0.06230        0.07910
N          3.42390        1.00430        0.07750
N          4.65820        0.52360        0.07400
C          4.54680       -0.81910        0.07350
F          5.59620       -1.67590        0.07020
O          3.28670       -1.17960        0.07670
H          0.72750        0.93380        0.08460
H          0.63020       -0.84460        0.08390
