11
4485	1
C          1.06840       -0.00600       -0.07220
C          2.55850       -0.02600       -0.07640
N          3.34080        1.07680       -0.07960
N          4.59010        0.64250       -0.08280
H          5.43860        1.25090       -0.08570
C          4.53450       -0.70810       -0.08150
O          5.50740       -1.44020       -0.08360
O          3.29220       -1.11930       -0.07760
H          0.69730        1.04050       -0.07210
H          0.69380       -0.52460        0.83450
H          0.68860       -0.52610       -0.97600
