11
4521	1
N          0.91690        0.01880        0.07350
C          2.32880        0.00420        0.06890
N          3.08660        1.12180        0.06400
C          4.35830        0.67060        0.06080
C          4.33790       -0.70600        0.06380
F          5.41550       -1.52770        0.06210
N          3.06410       -1.12270        0.06890
H          2.72010       -2.10850        0.07220
H          0.40830        0.91450        0.07320
H          0.38880       -0.86560        0.07710
H          5.23470        1.30470        0.05650
