15
4568	1
N          1.02620        0.13370        0.07530
C          2.48230        0.08230       -0.03010
C          3.05240       -1.18380        0.62620
C          3.25720       -0.82440        2.09990
C          3.49940        0.63990        1.98960
F          3.95770        1.41340        3.00800
C          3.07920        1.13620        0.83900
H          0.62150       -0.65290       -0.48230
H          0.68860        1.02600       -0.35330
H          2.80110        0.13480       -1.09540
H          4.08370       -1.28130        0.21050
H          2.53410       -2.14270        0.41290
H          4.10720       -1.40260        2.52120
H          2.33820       -0.96920        2.70770
H          3.07000        2.19500        0.61600
