17
4579	1
C          1.02320        0.12570       -0.16250
C          2.52370       -0.00250        0.08540
O          2.80070       -1.19890        0.80700
C          3.43030       -0.82940        2.02780
C          3.52650        0.64230        2.01220
C          4.12560        1.48170        3.09840
C          3.01670        1.11160        0.91790
H          0.67130       -0.73200       -0.77360
H          0.80390        1.06620       -0.71200
H          0.46800        0.12970        0.80040
H          3.07420       -0.00960       -0.88000
H          4.44720       -1.27270        2.08040
H          2.81140       -1.15730        2.88970
H          4.49040        0.83660        3.92510
H          3.36080        2.18000        3.49880
H          4.97980        2.06520        2.69490
H          2.96560        2.16240        0.65990
