11
4499	1
F          0.91860        0.27380        0.01300
C          2.27070        0.14580        0.01640
C          3.10840        1.17220        0.02090
C          4.39950        0.70880        0.02340
C          4.39340       -0.61600        0.02050
F          5.51830       -1.37710        0.02190
C          2.99920       -1.16250        0.01560
H          2.81120        2.21260        0.02230
H          5.29050        1.32280        0.02710
H          2.78490       -1.75470        0.92980
H          2.78980       -1.75080       -0.90240
