11
4542	1
C          1.02670        0.07290       -0.05090
C          2.51840        0.07520       -0.04710
C          3.34750        1.17480       -0.04800
N          4.62290        0.74290       -0.04350
C          4.51800       -0.60220       -0.04000
F          5.58130       -1.44170       -0.03480
O          3.26610       -0.99940       -0.04210
H          0.63500        1.11210       -0.05480
H          0.65560       -0.45040        0.85460
H          0.66030       -0.45540       -0.95540
H          3.05080        2.21530       -0.05170
