11
4509	1
O          1.01850        0.08420        0.03900
C          2.36480        0.09000        0.04530
C          3.16690        1.21490        0.04920
C          4.47050        0.75540        0.05520
C          4.39680       -0.62450        0.05460
F          5.45510       -1.47110        0.05950
N          3.11340       -1.02580        0.04860
H          2.76780       -2.01110        0.04680
H          0.51700        0.91150        0.03690
H          2.84260        2.24710        0.04780
H          5.36960        1.35700        0.05950
