11
4519	1
O          1.04950       -0.05390       -0.06880
C          2.39540       -0.06280       -0.06200
C          3.22300        1.03830       -0.05820
N          4.50280        0.61030       -0.05160
C          4.41280       -0.73900       -0.05160
O          5.47940       -1.55900       -0.04590
N          3.14040       -1.17600       -0.05780
H          2.80680       -2.16540       -0.05920
H          0.55780        0.77930       -0.07160
H          2.92240        2.07750       -0.06020
H          6.37800       -1.20120       -0.04150
