14
4503	1
C          1.08070       -0.02540       -0.02040
C          2.57430       -0.01960       -0.01440
C          3.38320        1.10450       -0.01200
C          4.68750        0.64780       -0.00620
C          4.61050       -0.73100       -0.00550
O          5.65780       -1.57680       -0.00040
N          3.32890       -1.13460       -0.01050
H          2.98670       -2.12140       -0.01110
H          0.68500        1.01220       -0.02260
H          0.70880       -0.55120        0.88340
H          0.71590       -0.55240       -0.92650
H          3.06150        2.13770       -0.01400
H          5.58600        1.25060       -0.00290
H          6.56640       -1.24450        0.00340
