9
4487	1
O          1.07600       -0.05740       -0.04860
C          2.42070       -0.07400       -0.05370
N          3.19760        1.03120       -0.05890
N          4.44710        0.59640       -0.06270
H          5.29560        1.20480       -0.06720
C          4.39190       -0.75590       -0.05970
O          5.36530       -1.48750       -0.06180
O          3.14940       -1.16830       -0.05410
H          0.59260        0.78030       -0.04860
