15
4592	2
C          0.95520       -0.08970        0.04520
C          2.45240       -0.08970        0.00180
C          3.20390       -1.19230       -0.01530
C          4.57640       -0.76670       -0.05680
N          5.60760       -1.53030       -0.08350
N          4.63840        0.62930       -0.06450
C          3.30040        1.17550       -0.02800
H          0.55450       -1.12570        0.06110
H          0.56030        0.43340       -0.85040
H          0.61270        0.44100        0.95770
H          2.84000       -2.21180       -0.00050
H          5.50530       -2.55570       -0.07620
H          5.50520        1.18570       -0.09190
H          3.09590        1.77670       -0.93890
H          3.14880        1.78440        0.88810
