12
4664	1
N          0.90280        0.17850       -0.27560
N          2.30320        0.09800       -0.18990
C          3.15830        1.13880       -0.19110
N          4.44210        0.72590       -0.09730
C          4.36110       -0.62100       -0.03850
O          5.42360       -1.43990        0.06070
C          3.04610       -1.01620       -0.09520
H          0.55990        0.71050        0.55590
H          0.49800       -0.78450       -0.23680
H          2.85770        2.17620       -0.25810
H          6.32160       -1.08190        0.09530
H          2.66070       -2.02720       -0.06930
