15
4658	1
C          1.03810       -0.06900       -0.03660
C          2.53020       -0.08450       -0.02960
C          3.36170        1.01350       -0.02620
N          4.62740        0.56640       -0.02010
C          5.84390        1.36890       -0.01480
C          4.55410       -0.77900       -0.01980
N          3.27420       -1.21020       -0.02560
H          0.65820        0.97460       -0.03890
H          0.65780       -0.58930        0.86690
H          0.66620       -0.59020       -0.94310
H          3.06870        2.05600       -0.02810
H          5.59730        2.45220       -0.01650
H          6.44790        1.13720       -0.91710
H          6.43940        1.13810        0.89350
H          5.41360       -1.43690       -0.01550
