12
4623	1
N          0.98390       -0.07820        0.07020
C          2.39500       -0.04050        0.07380
N          3.12130        1.09840        0.07860
C          4.38920        0.63340        0.08040
N          5.42900        1.38100        0.08500
N          4.43090       -0.71000        0.07690
H          5.27520       -1.32500        0.07730
N          3.18120       -1.13290        0.07270
H          2.88380       -2.13390        0.06930
H          0.44260        0.79810        0.07120
H          0.48910       -0.98160        0.06660
H          5.33980        2.40770        0.08760
