14
4640	1
C          0.86160       -0.07780        0.12300
C          2.38820       -0.07360        0.14350
C          2.95360        1.08670       -0.62970
C          3.71650        0.63870       -1.67800
C          3.70030       -0.80200       -1.65570
F          4.34420       -1.61020       -2.53660
C          2.96200       -1.22810       -0.64130
H          0.47470        0.82080        0.64880
H          0.48010       -0.98280        0.64170
H          0.47990       -0.07500       -0.92130
H          2.76190       -0.07650        1.18980
H          2.78980        2.13140       -0.40020
H          4.23610        1.26700       -2.38880
H          2.79820       -2.27300       -0.41170
