13
4602	2
C          1.04960        0.05380       -0.05400
C          2.54250        0.07690       -0.04920
C          3.34820        1.19630       -0.04530
C          4.63090        0.68810       -0.04170
O          5.76950        1.40530       -0.03720
N          4.59310       -0.65740       -0.04330
N          3.32040       -1.02310       -0.04780
H          2.99390       -2.01490       -0.05000
H          0.64340        1.08740       -0.05420
H          0.68420       -0.47750        0.84930
H          0.69000       -0.47560       -0.96080
H          3.04520        2.23520       -0.04520
H          5.74810        2.37260       -0.03620
