12
4603	2
N          0.97140       -0.08850        0.04030
C          2.38360       -0.07110        0.04160
C          3.18230        1.05790        0.04440
C          4.46530        0.55300        0.04460
O          5.49160        1.20850        0.04680
N          4.42480       -0.80260        0.04210
H          5.23850       -1.45750        0.04170
N          3.15570       -1.17640        0.04030
H          2.82890       -2.16830        0.03810
H          0.44100        0.79460        0.04140
H          0.46440       -0.98510        0.03830
H          2.87230        2.09480        0.04600
