12
4610	2
C          0.89400       -0.03850        0.01130
C          2.38520       -0.00760        0.01680
C          3.18770        1.11310        0.01890
C          4.46390        0.60050        0.02400
O          5.60790        1.30900        0.02780
N          4.41310       -0.74320        0.02480
O          3.15310       -1.07620        0.02040
H          0.48210        0.99290        0.00900
H          0.53210       -0.57060        0.91530
H          0.53870       -0.57200       -0.89460
H          2.88580        2.15220        0.01710
H          5.59390        2.27640        0.02700
