13
4682	1
C          0.89510        0.04720       -0.01550
N          2.35100        0.06690       -0.00920
C          3.14770        1.14870       -0.00620
C          4.43480        0.67190       -0.00040
N          5.61970        1.43880        0.00450
N          4.39550       -0.67390        0.00020
N          3.11360       -1.01740       -0.00520
H          0.49000        1.08170       -0.01780
H          0.52660       -0.48150        0.88840
H          0.53440       -0.48250       -0.92190
H          2.81710        2.17950       -0.00820
H          5.57240        2.46790        0.00370
H          6.53790        0.97220        0.00880
