13
4590	1
C          1.03470        0.02870       -0.08400
C          2.52660        0.04400       -0.07820
C          3.33030        1.16800       -0.07620
C          4.61790        0.68620       -0.07070
O          5.74860        1.41610       -0.06700
C          4.54220       -0.68770       -0.06970
O          3.27470       -1.04060       -0.07430
H          0.63230        1.06390       -0.08660
H          0.66720       -0.49960        0.81990
H          0.67420       -0.50130       -0.98990
H          3.01600        2.20360       -0.07840
H          5.71610        2.38300       -0.06800
H          5.37410       -1.37940       -0.06580
