12
4661	1
C          1.01940        0.10000       -0.03350
N          2.47660        0.07290       -0.02930
C          3.31080        1.13220       -0.02750
N          4.60590        0.74840       -0.02350
C          4.56350       -0.59920       -0.02300
F          5.65900       -1.39630       -0.01940
C          3.25520       -1.02010       -0.02650
H          0.64840        1.14720       -0.03510
H          0.63380       -0.41570        0.87090
H          0.63900       -0.41660       -0.93970
H          2.98730        2.16520       -0.02890
H          2.89690       -2.04160       -0.02700
