13
4652	1
N          0.89220        0.04240       -0.16140
N          2.29320       -0.02050       -0.07630
C          3.12170        1.04270       -0.07330
C          4.43060        0.60410        0.02160
C          4.36630       -0.77630        0.07420
O          5.40920       -1.62190        0.16910
C          3.03930       -1.13860        0.01170
H          0.54210        0.57050        0.66980
H          0.49830       -0.92540       -0.12220
H          2.79720        2.07350       -0.13460
H          5.32140        1.21760        0.04820
H          6.31680       -1.28850        0.20840
H          2.64540       -2.14690        0.02960
