9
4633	1
O          1.10880       -0.03040        0.02930
C          2.45270        0.02100        0.03200
N          3.17060        1.16620        0.03720
C          4.43490        0.70450        0.03810
O          5.42220        1.41700        0.04230
N          4.47080       -0.64820        0.03360
H          5.30720       -1.27320        0.03310
O          3.23290       -1.03680        0.02990
H          0.58360        0.78180        0.03100
