16
4641	1
C          1.01650        0.07530        0.09170
C          2.51380        0.05730        0.08270
C          3.27050       -1.03440        0.06900
C          4.74090       -0.68640        0.06290
N          5.40690       -1.16810       -1.14550
C          4.66390        0.81480        0.07670
C          3.35650        1.22910        0.08750
H          0.60500       -0.95660        0.08720
H          0.64790        0.61200       -0.80710
H          0.65840        0.59990        1.00190
H          2.88050       -2.04440        0.06330
H          5.25460       -1.07110        0.96980
H          4.90870       -0.81970       -1.99790
H          5.38070       -2.21360       -1.15450
H          5.51360        1.48460        0.07810
H          3.02740        2.25960        0.09820
