12
4672	1
C          0.98040       -0.07260        0.05850
N          2.43700       -0.07230        0.06360
C          3.23640        1.01110        0.06460
C          4.53860        0.57210        0.06980
F          5.65790        1.33560        0.07250
C          4.47180       -0.80510        0.07190
N          3.17440       -1.17330        0.06790
H          0.58760        0.96670        0.05550
H          0.60580       -0.59560        0.96310
H          0.61200       -0.59850       -0.84700
H          2.89590        2.03860        0.06170
H          5.30580       -1.49380        0.07590
