10
4637	1
N          1.09800       -0.02380        0.04850
C          2.50910        0.01380        0.04560
N          3.23670        1.14890        0.04120
C          4.49810        0.67160        0.03990
O          5.49260        1.37350        0.03610
O          4.51850       -0.64030        0.04320
N          3.29660       -1.07610        0.04680
H          3.00690       -2.07910        0.05000
H          0.55690        0.85260        0.04740
H          0.60320       -0.92710        0.05190
