15
4670	1
C          0.99260        0.04400       -0.08610
C          2.48470        0.00920       -0.07970
C          3.35000        1.08660       -0.07710
N          4.61660        0.62410       -0.07120
N          4.56810       -0.69990       -0.07010
C          5.74150       -1.56210       -0.06410
C          3.28660       -1.10980       -0.07510
H          0.62900        1.09330       -0.08880
H          0.60460       -0.47000        0.81790
H          0.61230       -0.47180       -0.99230
H          3.08070        2.13440       -0.07940
H          6.66850       -0.95030       -0.06070
H          5.73770       -2.20520       -0.96910
H          5.72990       -2.20340        0.84220
H          2.96420       -2.14330       -0.07540
