11
4774	1
C          0.91720       -0.04110        0.05980
C          2.40920       -0.02100        0.06440
C          3.21690        1.09500        0.06560
C          4.49210        0.58180        0.07020
F          5.64500        1.29330        0.07300
O          4.42190       -0.72930        0.07150
N          3.18080       -1.12560        0.06810
H          0.51300        0.99330        0.05730
H          0.55070       -0.56950        0.96430
H          0.55640       -0.57160       -0.84580
H          2.91950        2.13530        0.06350
