9
4763	1
F          0.88130        0.05450        0.08820
C          2.23530        0.00460        0.09560
C          3.09600        1.08120        0.09980
O          4.33400        0.63720        0.10670
C          4.31400       -0.67760        0.10700
F          5.42200       -1.45740        0.11330
C          3.01210       -1.12920        0.10020
H          2.81740        2.12640        0.09800
H          2.67370       -2.15680        0.09870
