14
4734	1
C          1.01360        0.04260        0.07950
C          2.51010       -0.02610        0.08100
C          3.31040        1.03070        0.08410
C          4.67440        0.56440        0.08450
F          5.77840        1.35510        0.08740
C          4.69320       -0.75750        0.08180
C          3.29680       -1.31240        0.07910
H          0.66030        1.09590        0.08140
H          0.61980       -0.46870        0.98240
H          0.62180       -0.46480       -0.82640
H          2.99050        2.06470        0.08590
H          5.59720       -1.35200        0.08150
H          3.09820       -1.91280        0.99170
H          3.10020       -1.90890       -0.83660
