11
4745	1
O          0.98040       -0.01600        0.07910
C          2.32570       -0.05120        0.08530
C          3.17450        1.03690        0.08990
N          4.44880        0.60200        0.09550
H          5.30660        1.19710        0.09980
C          4.40830       -0.74510        0.09460
F          5.50910       -1.53560        0.09930
C          3.10140       -1.18890        0.08830
H          0.50510        0.82670        0.07740
H          2.88400        2.07940        0.08910
H          2.75910       -2.21530        0.08620
