10
4749	1
F          0.95310        0.06950       -0.09180
C          2.30720        0.02080       -0.08380
C          3.16350        1.10220       -0.07860
N          4.43640        0.66380       -0.07100
H          5.29610        1.25600       -0.06580
C          4.39090       -0.68160       -0.07140
F          5.48840       -1.47670       -0.06480
C          3.08290       -1.11860       -0.07920
H          2.87680        2.14560       -0.08030
H          2.73720       -2.14360       -0.08130
