13
4742	1
N          0.97030        0.03820       -0.10350
C          2.38190       -0.00820       -0.09690
C          3.23140        1.08030       -0.09310
N          4.50640        0.64580       -0.08710
H          5.36370        1.24180       -0.08310
C          4.46140       -0.70210       -0.08700
O          5.55050       -1.49260       -0.08180
C          3.15680       -1.14880       -0.09310
H          0.48070        0.94460       -0.10580
H          0.42220       -0.83400       -0.10590
H          2.94090        2.12280       -0.09460
H          6.43960       -1.11170       -0.07760
H          2.81490       -2.17550       -0.09450
