11
4731	1
C          0.93120       -0.04360       -0.03740
C          2.42570       -0.05410       -0.03770
N          3.13790       -1.12110       -0.03680
C          4.46850       -0.67350       -0.03750
O          5.44400       -1.40620       -0.03690
N          4.52790        0.73070       -0.03880
C          3.30960        1.12640       -0.03900
H          0.53480       -1.08110       -0.03640
H          0.56450        0.48290       -0.94290
H          0.56480        0.48470        0.86710
H          3.01230        2.16650       -0.03990
