11
4757	1
N          0.91920        0.11400        0.03390
C          2.33110        0.07600        0.03840
C          3.17680        1.16390        0.04060
O          4.41910        0.73080        0.04480
C          4.41230       -0.58590        0.04540
F          5.52860       -1.35380        0.04940
C          3.11480       -1.05280        0.04150
H          0.42430        1.01750        0.03180
H          0.37640       -0.76160        0.03260
H          2.88790        2.20660        0.03910
H          2.78690       -2.08390        0.04100
