15
4737	1
C          1.02820        0.02900        0.04840
C          2.52050       -0.01960        0.05480
C          3.38260        1.06330        0.05790
N          4.65570        0.62460        0.06360
H          5.51510        1.21760        0.06690
C          4.60570       -0.72040        0.06420
N          5.74910       -1.55000        0.06960
C          3.29870       -1.16070        0.05890
H          0.67260        1.08100        0.04630
H          0.63540       -0.48200        0.95220
H          0.64320       -0.48310       -0.85800
H          3.09920        2.10780        0.05600
H          6.69130       -1.13380        0.07340
H          5.64760       -2.57520        0.06980
H          2.95430       -2.18670        0.05810
