16
4736	1
C          0.86150        0.10140        0.01620
C          2.35380        0.05200        0.02300
C          3.21560        1.13210        0.02620
N          4.48760        0.69180        0.03230
H          5.34530        1.28750        0.03580
C          4.44260       -0.65530        0.03310
C          5.64780       -1.53760        0.03930
C          3.13130       -1.08860        0.02740
H          0.50650        1.15370        0.01380
H          0.46820       -0.40920        0.91980
H          0.47650       -0.41050       -0.89030
H          2.93340        2.17710        0.02410
H          6.57550       -0.92770        0.04310
H          5.64320       -2.18060       -0.86550
H          5.63490       -2.17930        0.94490
H          2.78380       -2.11360        0.02660
