13
4780	1
C          1.01620        0.02040       -0.09380
C          2.50840        0.00440       -0.08810
C          3.34150        1.10430       -0.08760
N          4.60980        0.66530       -0.08160
H          5.47730        1.24640       -0.07980
C          4.52510       -0.67890       -0.07860
O          5.59270       -1.49810       -0.07250
N          3.25130       -1.12060       -0.08240
H          0.63680        1.06420       -0.09780
H          0.63650       -0.49800        0.81110
H          0.64340       -0.50240       -0.99900
H          3.04890        2.14630       -0.09130
H          6.49160       -1.14100       -0.06990
