13
4783	2
C          0.89940       -0.03580        0.03510
C          2.39140       -0.01220        0.03760
N          3.12580        1.12160        0.04170
C          4.40090        0.68830        0.04270
O          5.47600        1.49650        0.04650
C          4.42970       -0.68490        0.03930
N          3.16020       -1.12120        0.03610
H          2.83790       -2.11440        0.03310
H          0.49740        0.99930        0.03700
H          0.53490       -0.56750        0.93850
H          0.53780       -0.56310       -0.87200
H          5.37120        2.45810        0.04870
H          5.30450       -1.32180        0.03910
