12
4694	1
C          0.99990        0.10260        0.01440
N          2.45650        0.10280        0.01950
C          3.25690        1.18690        0.02030
C          4.56700        0.75760        0.02570
C          4.48510       -0.61980        0.02790
F          5.53030       -1.48170        0.03320
N          3.19310       -0.99670        0.02410
H          0.60720        1.14200        0.01120
H          0.62520       -0.42010        0.91920
H          0.63150       -0.42340       -0.89100
H          2.91350        2.21350        0.01720
H          5.46120        1.36630        0.02770
