11
4758	1
O          0.94150        0.09190       -0.08910
C          2.28640        0.04430       -0.08210
C          3.14880        1.12250       -0.07720
O          4.38530        0.67260       -0.07090
C          4.35520       -0.64350       -0.07150
O          5.44940       -1.42500       -0.06600
C          3.05350       -1.09530       -0.07850
H          0.47420        0.93910       -0.09130
H          2.87410        2.16900       -0.07830
H          6.33340       -1.03290       -0.06120
H          2.71080       -2.12170       -0.08060
