10
4722	1
F          0.96440       -0.01510        0.06540
C          2.32150       -0.06200        0.06420
C          3.05380       -1.16990        0.06400
C          4.43210       -0.70940        0.06250
N          5.48390       -1.44390        0.06190
N          4.45300        0.69630        0.06190
C          3.23510        1.09370        0.06280
H          2.68640       -2.18770        0.06480
H          5.40830       -2.47160        0.06240
H          2.94780        2.13650        0.06260
