12
4773	2
C          1.01880        0.03310        0.08190
C          2.51060        0.06070        0.08730
C          3.31250        1.18190        0.08940
C          4.58910        0.66990        0.09450
O          5.73460        1.37590        0.09810
O          4.52800       -0.64040        0.09520
N          3.28820       -1.04150        0.09100
H          0.60940        1.06540        0.07960
H          0.65450       -0.49750        0.98600
H          0.66110       -0.49890       -0.82400
H          3.01020        2.22090        0.08750
H          5.72220        2.34340        0.09730
