13
4792	1
C          1.03590       -0.06890        0.07360
C          2.52610       -0.03010        0.07690
N          3.25210        1.10840        0.08240
C          4.52290        0.67220        0.08360
N          5.65230        1.51920        0.08890
C          4.53930       -0.70150        0.07890
O          3.29100       -1.10270        0.07490
H          0.62300        0.96180        0.07630
H          0.67760       -0.60590        0.97630
H          0.68140       -0.59970       -0.83410
H          5.53180        2.54210        0.09220
H          6.60190        1.11960        0.08960
H          5.40500       -1.35040        0.07850
