17
4829	1
N          1.01330        0.22540       -0.03240
C          2.45670        0.02620        0.02390
C          2.99770       -1.38490        0.14680
N          4.43300       -1.07990        0.18820
C          4.35360        0.38460        0.05410
C          3.26810        0.77270        1.06390
C          3.32790        0.60670       -1.06860
H          0.58440       -0.16540        0.83700
H          0.63170       -0.29440       -0.85490
H          2.72840       -2.01790       -0.72980
H          2.67070       -1.87380        1.09070
H          4.91430       -1.47270       -0.65550
H          5.34410        0.88720        0.04440
H          3.05780        1.86920        1.07180
H          3.33510        0.35350        2.09360
H          3.44850        0.03400       -2.01630
H          3.12280        1.68760       -1.25840
