17
4872	1
C          2.19900       -1.31650       -0.10140
O          2.14600        0.09090       -0.08340
C          2.75580        0.55860        1.09990
C          2.73070        2.08210        1.23610
C          2.44000        1.88710        2.72980
O          3.63840        1.73470        3.44760
C          1.89170        0.50510        2.36640
H          1.71460       -1.67140       -1.03420
H          1.63010       -1.75670        0.74730
H          3.25000       -1.68140       -0.12150
H          3.79840        0.19830        1.28070
H          1.80290        2.47640        0.75610
H          3.62430        2.66470        0.92600
H          1.75260        2.59070        3.24950
H          4.07960        2.62370        3.44020
H          0.81930        0.62060        2.07840
H          2.03450       -0.33550        3.07840
