9
4822	1
O          1.18090        0.04720       -0.07230
C          2.51920       -0.08620       -0.07820
N          3.38320        0.94730       -0.08290
O          4.56530        0.40770       -0.08770
C          4.44670       -0.89880       -0.08610
O          5.47970       -1.75930       -0.09000
N          3.15480       -1.27300       -0.08000
H          0.77180        0.92370       -0.07130
H          6.39030       -1.43380       -0.09440
