11
4785	1
O          0.92230        0.05300        0.04120
C          2.26790        0.03780        0.04750
C          3.09440        1.14000        0.04900
N          4.36300        0.70090        0.05580
H          5.23030        1.28230        0.05860
C          4.27890       -0.64520        0.05820
O          5.34720       -1.46330        0.06490
N          3.00480       -1.08880        0.05330
H          0.43410        0.88830        0.03720
H          2.79880        2.18100        0.04540
H          6.24580       -1.10540        0.06840
