18
4879	1
C          1.08100       -0.15050        0.35430
C          2.54600        0.03110       -0.03950
C          3.25930        1.15210        0.69110
C          4.16460        0.02210        1.14270
C          5.57400        0.07520        0.53560
N          6.31400       -1.13670        0.86810
O          3.37620       -0.96260        0.51380
H          0.48830        0.72030        0.00280
H          0.97640       -0.23840        1.45690
H          0.68260       -1.07340       -0.11760
H          2.70400        0.08400       -1.14100
H          2.67660        1.54340        1.55440
H          3.72250        1.89570        0.00700
H          4.16410       -0.09670        2.25020
H          6.11430        0.96310        0.93290
H          5.50790        0.17000       -0.57110
H          6.44060       -1.18620        1.90530
H          7.26390       -1.07400        0.43580
