17
4869	1
C          3.14800        0.29750       -0.97430
N          2.22840        0.07100        0.14040
C          2.83100       -0.82310        1.13810
C          1.91220       -1.21800        2.29700
C          2.54210       -2.61150        2.22740
F          3.69920       -2.63030        2.99430
C          2.90730       -2.31110        0.77210
H          2.67740        0.99060       -1.70350
H          3.38040       -0.65740       -1.49450
H          4.08950        0.76530       -0.61130
H          1.33990       -0.34070       -0.23090
H          3.80660       -0.46040        1.54130
H          0.86140       -1.29920        1.93080
H          1.97230       -0.64750        3.24800
H          1.90930       -3.49730        2.44950
H          2.03330       -2.58560        0.13610
H          3.85710       -2.71460        0.36200
