8
4823	1
O          1.18740        0.08020        0.10010
C          2.52850       -0.01960        0.09600
N          3.36590        1.03380        0.09360
O          4.56070        0.52330        0.08990
C          4.47810       -0.78640        0.09010
F          5.54190       -1.62510        0.08680
N          3.19370       -1.18910        0.09390
H          0.75630        0.94610        0.10150
