18
4836	1
C          1.06920       -0.02250       -0.10690
C          2.58690        0.11400       -0.08220
C          3.43840       -0.50380       -1.18910
C          4.48350       -0.32350       -0.09320
C          4.50930        1.19730        0.01510
N          3.07290        1.49210        0.03770
C          3.41170       -0.65430        0.94290
H          0.65520        0.53160       -0.97520
H          0.63920        0.39210        0.82890
H          0.78470       -1.09230       -0.19300
H          3.55350        0.06040       -2.14260
H          3.20310       -1.57990       -1.37320
H          5.46940       -0.83380       -0.11830
H          5.01970        1.66640       -0.85760
H          4.99430        1.52960        0.95940
H          2.80340        2.03020       -0.82050
H          3.50170       -0.22840        1.96840
H          3.17430       -1.74520        0.96810
