16
4827	1
F          1.07330        0.21840       -0.01460
C          2.43680       -0.00570        0.04000
C          2.89690       -1.45310        0.15590
C          4.40380       -1.18070        0.17940
C          4.36400        0.34810        0.06970
C          3.27920        0.71230        1.08520
C          3.33980        0.56100       -1.04670
H          2.58540       -2.04650       -0.73210
H          2.53330       -1.91640        1.09960
H          4.92720       -1.63170       -0.69250
H          4.87530       -1.50210        1.13440
H          5.35330        0.85270        0.06210
H          3.08130        1.81080        1.10820
H          3.33700        0.28750        2.11370
H          3.45400       -0.00440       -2.00000
H          3.14800        1.64450       -1.23560
