12
4790	1
C          1.02670        0.04990        0.07780
C          2.51870        0.02850        0.08290
C          3.35900        1.12170        0.08250
O          4.59010        0.67130        0.08810
C          4.52790       -0.64180        0.09180
O          5.60470       -1.44690        0.09790
N          3.25920       -1.09530        0.08880
H          0.65140        1.09510        0.07340
H          0.64530       -0.46660        0.98310
H          0.65150       -0.47200       -0.82700
H          3.07810        2.16670        0.07840
H          6.49710       -1.07430        0.09990
