14
4835	1
F          1.04750        0.11850       -0.12520
C          2.41690       -0.05940       -0.05500
C          2.94930       -1.46320        0.08340
O          4.33630       -1.19540        0.11730
C          4.31610        0.21680       -0.00110
C          3.24010        0.65440        0.99350
C          3.32640        0.47700       -1.13740
H          2.68230       -2.09270       -0.79460
H          2.60850       -1.94090        1.02910
H          5.32730        0.67550        0.00160
H          3.07210        1.75820        0.99670
H          3.28230        0.23580        2.02500
H          3.44840       -0.10580       -2.07890
H          3.16650        1.56400       -1.33630
