17
4919	1
C          1.03700       -0.16050        0.62360
C          2.31040       -0.13500       -0.22360
C          3.24100        1.06190        0.11140
N          4.16340        0.12240        0.65310
C          3.42940       -1.05960        0.32580
N          4.69390        0.32030        1.91190
C          5.35360       -0.60030        2.52290
H          0.36010        0.65770        0.29980
H          1.26720       -0.03000        1.70330
H          0.51730       -1.13130        0.48260
H          2.13930       -0.26140       -1.31500
H          2.86510        1.77140        0.88260
H          3.69000        1.53800       -0.78680
H          3.15700       -1.65790        1.22400
H          3.97240       -1.61970       -0.46570
H          5.75520       -0.40780        3.51140
H          5.52570       -1.56760        2.05950
