20
4979	1
C          1.03000        0.08460       -0.02020
C          2.55570        0.20090        0.08810
C          2.92970        1.50790        0.80290
C          3.13140       -1.02460        0.82360
N          4.60400       -0.92810        0.90720
C          5.22100       -2.24240        1.19500
C          5.29280       -1.68910       -0.16100
H          0.61700        0.95210       -0.57790
H          0.56500        0.05430        0.98880
H          0.75280       -0.84070       -0.56900
H          2.97530        0.22700       -0.94200
H          2.52000        1.52090        1.83590
H          2.52200        2.37860        0.24620
H          4.03260        1.62550        0.85490
H          2.78300       -1.94940        0.30490
H          2.72010       -1.05870        1.85650
H          4.47690       -3.04630        1.39250
H          6.11900       -2.09480        1.83040
H          4.60100       -2.08790       -0.93530
H          6.24110       -1.17660       -0.42570
