16
4943	1
C          2.19400       -1.43100        0.35420
C          2.22470        0.05560        0.01230
N          2.97690        0.80290        1.03740
C          2.98790        2.27270        0.74620
C          2.22150        2.44810        1.95400
O          1.78680        3.43990        2.51620
C          2.16890        1.04490        2.27810
H          1.65680       -1.98680       -0.44280
H          1.67170       -1.60060        1.31880
H          3.23010       -1.82440        0.42900
H          1.18380        0.43840       -0.09650
H          2.73850        0.16900       -0.96730
H          2.41860        2.58750       -0.15750
H          4.00110        2.71870        0.83650
H          1.12640        0.65550        2.25870
H          2.73290        0.81860        3.20750
