19
4980	1
C          2.90750       -0.71460        1.34220
C          2.62180       -0.09410       -0.03390
N          1.18130       -0.07930       -0.29630
C          3.17750        1.33570       -0.14400
N          4.65010        1.32720       -0.01600
C          5.18110        2.70830        0.05040
C          5.13370        1.89590        1.26580
H          2.50180       -1.74770        1.38390
H          2.43580       -0.11280        2.14810
H          4.00040       -0.77080        1.52750
H          3.11260       -0.72020       -0.81210
H          0.68400        0.46630        0.44560
H          0.81260       -1.05820       -0.29130
H          2.66450        1.99280        0.59670
H          2.92100        1.72250       -1.15510
H          4.40160        3.49380       -0.06820
H          6.16260        2.75400       -0.46530
H          4.32170        2.08400        2.00030
H          6.08190        1.39640        1.55330
