16
4913	1
N          0.96580       -0.11600        0.38730
C          2.32510       -0.10660       -0.15300
C          3.23680        0.98360        0.50140
N          3.97470       -0.09590        1.03590
C          3.24090       -1.18560        0.51020
C          5.13190       -0.06660        1.86100
N          5.68920       -1.15290        2.26150
H          0.46920        0.73760        0.04460
H          0.98250       -0.08570        1.43320
H          2.37250       -0.11720       -1.26390
H          2.77540        1.57360        1.32300
H          3.86680        1.55450       -0.21420
H          2.78040       -1.77000        1.33640
H          3.87280       -1.75970       -0.20120
H          5.55260        0.88820        2.15860
H          5.31840       -2.07760        1.99950
