18
4969	1
C          3.03080        1.39640        0.84910
C          2.58150        0.16470        0.04850
O          2.80940        0.34320       -1.32750
C          3.21200       -1.14990        0.55130
C          4.74960       -1.18000        0.42540
C          5.35990       -2.50180        0.32700
N          5.27340       -1.62980       -0.87420
H          2.49390        2.29620        0.48120
H          4.12090        1.57320        0.74020
H          2.79350        1.25990        1.92580
H          1.48260        0.07560        0.19380
H          3.76150        0.59470       -1.45100
H          2.74760       -1.99670       -0.00240
H          2.95380       -1.28250        1.62410
H          5.38990       -0.41270        0.90810
H          4.73650       -3.40910        0.15850
H          6.43180       -2.58720        0.60260
H          4.49220       -1.98020       -1.47650
