15
5075	1
O          1.04440        0.00580       -0.05750
C          2.26440       -0.04940       -0.03450
C          2.98720       -1.35470       -0.02450
C          3.92610       -1.33950       -1.23290
C          4.77400       -0.04870       -1.20680
O          3.94830        1.11060       -1.26580
C          3.11070        1.18800       -0.12150
H          2.29260       -2.22160       -0.05960
H          3.59180       -1.41730        0.90660
H          3.32670       -1.35220       -2.17030
H          4.57830       -2.23870       -1.21900
H          5.44020       -0.04790       -2.09490
H          5.43250       -0.01720       -0.30910
H          2.46290        2.08640       -0.20510
H          3.72640        1.30510        0.79810
