14
5007	2
N          1.03840       -0.22240        0.04850
C          2.35180       -0.28530        0.36590
O          2.78750       -1.27130        0.94370
C          3.26630        0.85920        0.00390
C          4.70890        0.62330        0.46640
C          5.65620        0.07030       -0.52930
O          5.61480        1.44950       -0.20990
H          0.40500       -0.99880        0.29080
H          0.65710        0.60190       -0.43870
H          2.89260        1.78330        0.49360
H          3.22420        1.01110       -1.09740
H          4.96990        0.52780        1.54160
H          5.33730       -0.04020       -1.58710
H          6.62130       -0.33320       -0.15920
