16
5079	2
O          1.57860        0.16690        0.98380
C          2.51020        0.08730        0.19740
C          3.12540       -1.26690       -0.07050
C          4.05760       -1.25040       -1.28650
C          4.97840       -0.04960       -1.18900
C          4.13860        1.23370       -1.28420
N          2.97480        1.21750       -0.40950
H          2.33390       -2.02090       -0.27140
H          3.67360       -1.57150        0.84730
H          3.46660       -1.16590       -2.22600
H          4.63110       -2.20150       -1.32040
H          5.73540       -0.05180       -2.00240
H          5.51300       -0.09110       -0.21370
H          3.78280        1.39880       -2.32410
H          4.80390        2.08020       -1.00930
H          2.47560        2.10670       -0.25400
