18
5033	1
F          0.89620        0.09450        0.10500
C          2.28190        0.08490        0.07560
C          2.78600       -1.31960       -0.29370
C          2.34030       -1.69910       -1.71440
C          2.85310       -0.66540       -2.72790
C          2.34340        0.73730       -2.36590
C          2.78910        1.11650       -0.94510
H          2.65000        0.35520        1.08850
H          2.39650       -2.06290        0.43460
H          3.89730       -1.33570       -0.24310
H          1.22970       -1.74110       -1.75810
H          2.73460       -2.70490       -1.97400
H          2.50800       -0.93780       -3.74820
H          3.96560       -0.66630       -2.72560
H          1.23290        0.75450       -2.42540
H          2.74000        1.47830       -3.09250
H          2.40190        2.12490       -0.68510
H          3.90050        1.15300       -0.90860
