16
5073	1
O          1.18730        0.04420       -0.01020
C          2.40780        0.00880        0.02010
C          3.14760       -1.29060        0.03530
C          4.08180       -1.29640       -1.17940
C          4.96050       -0.02570       -1.17910
N          4.13200        1.19730       -1.20700
C          3.22760        1.26520       -0.04660
H          2.45630       -2.16050        0.00840
H          3.75350       -1.34520        0.96580
H          3.47520       -1.31400       -2.11200
H          4.71910       -2.20620       -1.16090
H          5.62240       -0.03880       -2.07140
H          5.61080       -0.01590       -0.27650
H          3.56410        1.20710       -2.08730
H          2.57560        2.16220       -0.12420
H          3.83000        1.35590        0.88330
