14
5002	1
O          0.79880       -0.07500       -0.25960
C          2.08570       -0.28030       -0.61060
O          2.35210       -0.69460       -1.73040
C          3.17600        0.00830        0.38660
C          4.57710       -0.31060       -0.17070
C          5.30620        0.78000       -0.80960
N          5.68630        0.33090        0.55490
H          0.07670       -0.25050       -0.87960
H          3.00780       -0.62140        1.28560
H          3.09250        1.07550        0.68820
H          4.84400       -1.34270       -0.48240
H          4.91900        1.82270       -0.76080
H          6.12110        0.49570       -1.50730
H          5.31700        1.02940        1.24140
