15
5015	1
F          1.31300       -0.23100        0.40430
C          2.63260        0.06670        0.26880
C          3.30050        0.52090        1.33860
C          3.27280       -0.13450       -1.08700
N          4.71860        0.17710       -1.08310
C          5.23870        0.34530       -2.45900
C          5.02020        1.52580       -1.61830
H          2.78280        0.64210        2.28480
H          4.35390        0.77480        1.29350
H          2.69290        0.46310       -1.82810
H          3.14940       -1.20430       -1.35920
H          4.48600        0.12310       -3.24830
H          6.28200       -0.03080       -2.50800
H          4.11230        2.14370       -1.79410
H          5.91810        1.93140       -1.10760
