19
5066	1
C          1.12600        0.00390       -0.02860
C          2.46650       -0.01590       -0.00500
C          3.23680       -1.31180        0.01450
C          4.17820       -1.33240       -1.19880
C          5.07530       -0.07840       -1.21300
C          4.21660        1.20180       -1.24710
C          3.27560        1.25580       -0.03440
H          0.55750       -0.92090       -0.02060
H          0.58580        0.94510       -0.05610
H          2.56900       -2.20060       -0.00640
H          3.84030       -1.35260        0.94720
H          3.57360       -1.35780       -2.13260
H          4.80750       -2.24760       -1.16800
H          5.73610       -0.10540       -2.10580
H          5.71730       -0.07080       -0.30480
H          3.61250        1.20990       -2.18150
H          4.87330        2.09800       -1.25080
H          2.63500        2.16300       -0.08950
H          3.88060        1.31390        0.89640
