19
5038	1
C          0.87930       -0.02650        0.14380
C          2.41330       -0.05830        0.01100
C          2.93230       -1.44880       -0.39430
C          2.57460       -1.74680       -1.86100
O          3.12760       -0.76630       -2.72400
C          2.57070        0.50820       -2.44580
C          2.92810        0.96170       -1.01940
H          0.55460       -0.75500        0.91680
H          0.35700       -0.27240       -0.80090
H          0.55150        0.98480        0.46560
H          2.81640        0.20260        1.01450
H          2.53240       -2.23390        0.28310
H          4.04170       -1.45520       -0.30880
H          1.47790       -1.83870       -2.01890
H          3.00850       -2.73250       -2.13080
H          1.47380        0.50820       -2.62750
H          3.00160        1.23990       -3.16100
H          2.52510        1.97570       -0.80850
H          4.03740        1.01240       -0.94880
