13
5109	1
O          1.54240        0.15920        0.85520
C          2.44240        0.09130        0.03360
N          3.03350       -1.10470       -0.23870
N          4.02900       -1.20540       -1.21580
C          4.87790       -0.01370       -1.14630
C          4.00980        1.23480       -1.38820
O          2.87450        1.21770       -0.59160
H          2.74340       -1.95040        0.27350
H          3.56270       -1.21660       -2.15250
H          5.69770       -0.06660       -1.89450
H          5.33530        0.04050       -0.13390
H          3.68310        1.27600       -2.44940
H          4.61390        2.14060       -1.17330
