15
5164	2
N          0.91420       -0.04910        0.52610
C          2.13080       -0.08520        0.11230
C          2.84090        1.16190       -0.36600
C          4.23250        1.15100        0.26220
C          4.94070       -0.13800       -0.10460
C          4.26050       -1.30200       -0.11960
N          2.85290       -1.31280        0.11240
H          0.37790        0.83080        0.53910
H          2.27480        2.08710       -0.12430
H          2.96740        1.10290       -1.46910
H          4.10400        1.18300        1.36680
H          4.84200        2.02880       -0.03980
H          6.00080       -0.12520       -0.33800
H          4.78120       -2.23200       -0.32510
H          2.36350       -2.20660        0.26700
