17
5122	1
C          0.97450        0.04940       -0.49600
C          2.40010        0.04360        0.08460
C          3.19090        1.29530       -0.35120
N          3.60400        1.20510       -1.74200
C          3.60340       -0.03770       -2.44420
N          3.36370       -1.14690       -1.82560
C          3.17390       -1.19200       -0.38700
H          0.42060        0.94050       -0.13130
H          0.42560       -0.85680       -0.16210
H          0.97660        0.07230       -1.60580
H          2.29990        0.03940        1.19230
H          4.10700        1.41870        0.26580
H          2.55380        2.19240       -0.19380
H          3.97570        2.04340       -2.21190
H          3.81210       -0.05350       -3.50850
H          4.17240       -1.19590        0.10310
H          2.65490       -2.13240       -0.10430
