13
5178	2
C          0.92850       -0.09090       -0.08190
C          2.26800       -0.09110       -0.08360
C          3.03050        1.20590       -0.10240
O          4.40920        1.02170       -0.10170
N          5.02840       -0.15460       -0.08630
C          4.39840       -1.27900       -0.07010
N          2.98620       -1.30960       -0.06790
H          0.37640        0.84430       -0.09400
H          0.37540       -1.02500       -0.06830
H          2.75430        1.80360        0.79200
H          2.75200        1.77880       -1.01230
H          4.95840       -2.20810       -0.05810
H          2.49410       -2.21570       -0.05480
