13
5159	1
O          0.84890       -0.07890       -0.07390
C          2.07010       -0.06650       -0.06040
C          2.78140        1.25410       -0.04950
N          4.22100        1.12530       -0.03400
C          4.89250       -0.12610       -0.02950
N          4.25240       -1.24380       -0.03910
C          2.80980       -1.37540       -0.05530
H          2.46450        1.82170        0.85120
H          2.48440        1.82580       -0.95450
H          4.78880        1.98530       -0.02580
H          5.97720       -0.14200       -0.01750
H          2.50080       -1.95410        0.84060
H          2.52060       -1.94990       -0.96040
