14
5102	1
N          1.32970        0.11570        0.86510
C          2.36520        0.04710        0.10750
N          2.81690       -1.19650       -0.40730
C          4.06290       -1.24650       -1.14610
C          4.85450        0.06300       -0.95330
O          4.02880        1.17860       -1.21560
N          3.08010        1.22460       -0.24910
H          0.80270       -0.73110        1.12440
H          2.24070       -2.04590       -0.31020
H          3.83000       -1.42000       -2.21830
H          4.69350       -2.08250       -0.77520
H          5.73470        0.07380       -1.62980
H          5.24800        0.12800        0.08810
H          2.79570        2.13680        0.13700
