13
5168	3
O          0.98320        0.04000        0.57160
C          2.12510        0.02810        0.13840
C          2.77650        1.29750       -0.34030
C          4.24040        1.24510        0.08730
N          4.84340        0.00290       -0.37590
C          4.19090       -1.11560       -0.33830
N          2.81980       -1.13670        0.05780
H          2.24610        2.20610        0.01740
H          2.76330        1.29240       -1.45210
H          4.28710        1.27340        1.19840
H          4.80820        2.11370       -0.30720
H          4.69480       -2.04140       -0.59440
H          2.36780       -2.03310        0.29230
