17
5126	1
C          0.97280        0.10600        0.62550
C          2.37100        0.05930        0.00540
C          2.65290        1.27380       -0.88100
O          3.95180        1.18280       -1.35710
C          4.45740        0.02480       -1.86660
C          3.83190       -1.14970       -1.66310
C          2.57010       -1.22250       -0.83330
H          0.85940        1.02370        1.24090
H          0.81720       -0.77720        1.28090
H          0.19350        0.10790       -0.16660
H          3.12500        0.07160        0.82510
H          2.53740        2.22360       -0.31670
H          1.94300        1.28300       -1.73790
H          5.37140        0.05360       -2.45040
H          4.22060       -2.05230       -2.12410
H          2.62120       -2.08310       -0.13210
H          1.72740       -1.39190       -1.53810
