17
5116	1
O          1.17040       -0.00110        0.92360
C          2.34080        0.02510        0.15070
C          2.32040        1.18940       -0.83400
C          3.66260        1.24670       -1.58230
C          4.10070       -0.10340       -2.10300
C          3.53570       -1.25410       -1.69190
C          2.45670       -1.29530       -0.63340
H          1.26150        0.71570        1.60460
H          3.23240        0.12970        0.81460
H          2.15210        2.16000       -0.31950
H          1.48700        1.02700       -1.55390
H          4.47260        1.62610       -0.92310
H          3.53990        1.95760       -2.42690
H          4.90510       -0.14240       -2.83100
H          3.85950       -2.18890       -2.13920
H          2.67870       -2.09920        0.10080
H          1.50370       -1.54740       -1.14690
