15
5096	1
C          1.15420       -0.02640        0.39100
C          2.30870       -0.10080       -0.27720
C          3.09230       -1.40250       -0.32040
O          4.23090       -1.33230       -1.16730
C          4.91560       -0.11690       -0.95990
C          4.05330        1.04170       -1.47370
O          2.78580        0.99680       -0.91970
H          0.75890       -0.89360        0.91130
H          0.59800        0.90540        0.42050
H          2.42440       -2.18920       -0.73100
H          3.39620       -1.70840        0.70480
H          5.88360       -0.13310       -1.50320
H          5.15280        0.01470        0.12180
H          3.95360        0.98870       -2.57880
H          4.54740        1.99960       -1.20720
