15
5086	2
N          1.39770       -0.01590        0.88520
C          2.42630       -0.04910        0.11530
C          3.09500       -1.36920       -0.22260
O          4.09070       -1.24090       -1.22850
C          4.93970       -0.15290       -0.93930
C          4.19010        1.16530       -1.16120
N          2.93520        1.15670       -0.44020
H          1.00940       -0.87890        1.29380
H          2.31300       -2.04420       -0.62980
H          3.51500       -1.84500        0.69040
H          5.83510       -0.18940       -1.59460
H          5.31220       -0.22110        0.11000
H          3.97850        1.33230       -2.23890
H          4.83640        1.98900       -0.78960
H          2.39190        2.02920       -0.35870
