15
5099	1
O          1.48770        0.05610        1.10160
C          2.38140        0.01750        0.26920
N          2.92030       -1.18100       -0.08800
C          3.87250       -1.26860       -1.17680
C          4.81460       -0.08200       -1.09760
C          3.97730        1.20520       -1.19450
N          2.83510        1.17610       -0.29110
H          2.62260       -2.04370        0.39290
H          3.32750       -1.21260       -2.14510
H          4.41290       -2.23860       -1.13760
H          5.57930       -0.10510       -1.90320
H          5.33310       -0.11900       -0.11380
H          3.60150        1.37120       -2.22710
H          4.64740        2.05080       -0.92850
H          2.36020        2.06450       -0.06950
