13
5184	1
O          1.12880        0.11180        0.80700
C          2.22160        0.06620        0.26570
C          2.85910        1.31280       -0.29520
C          4.29060        1.33100        0.23750
C          4.95910        0.02540       -0.13500
C          4.24740       -1.12100       -0.09030
O          2.91930       -1.10180        0.22720
H          2.28980        2.22790       -0.02410
H          2.90160        1.23130       -1.40340
H          4.23980        1.39840        1.34700
H          4.87660        2.19690       -0.13650
H          5.99920        0.01210       -0.44530
H          4.72670       -2.06430       -0.33030
