15
5128	1
O          1.11450        0.04170        0.70040
C          2.34520        0.00840        0.02870
C          2.49880        1.19440       -0.92220
O          3.73570        1.10550       -1.54230
C          4.20060       -0.06370       -2.06600
C          3.62220       -1.23860       -1.75170
C          2.46330       -1.29570       -0.78180
H          1.19350        0.73700        1.40460
H          3.18680        0.04010        0.76140
H          2.42840        2.15960       -0.37780
H          1.69350        1.16050       -1.68920
H          5.04180       -0.04400       -2.75090
H          3.97090       -2.15240       -2.22250
H          2.59950       -2.13110       -0.06200
H          1.54600       -1.49090       -1.37820
