13
5097	1
O          1.41330        0.20270        0.86410
C          2.32860        0.10520        0.06300
C          3.01390       -1.22990       -0.14680
O          3.97570       -1.19690       -1.19240
C          4.75310       -0.02320       -1.10040
C          3.87380        1.19210       -1.41970
O          2.73390        1.19630       -0.63470
H          2.23480       -1.96640       -0.43500
H          3.48500       -1.57620        0.79870
H          5.59750       -0.07400       -1.81940
H          5.19890        0.06680       -0.08220
H          3.56350        1.17490       -2.48620
H          4.46170        2.11590       -1.23590
