17
5148	1
C          1.15040        0.10600       -0.27290
C          2.57240       -0.14070        0.26990
C          3.18700       -1.45890       -0.23230
C          3.63060       -1.32790       -1.65800
C          3.82160       -0.12180       -2.20550
C          3.65200        1.14870       -1.39680
O          3.44130        0.94470       -0.00230
H          0.48000       -0.72540        0.03240
H          1.12960        0.17050       -1.38020
H          0.74820        1.05150        0.14830
H          2.46110       -0.22690        1.37250
H          2.43170       -2.26770       -0.12990
H          4.07860       -1.74090        0.36750
H          3.81920       -2.22180       -2.24430
H          4.12350       -0.04890       -3.24580
H          2.84520        1.77930       -1.82680
H          4.60250        1.71300       -1.49540
