17
5244	1
C          1.05680        0.27510        0.15040
C          2.56550        0.01590        0.17780
O          3.30240        1.17020       -0.22410
C          3.44240        1.24280       -1.62690
C          4.29970        0.08690       -2.14460
C          3.75540       -1.21510       -1.63820
C          2.92740       -1.24880       -0.58530
H          0.81770        1.16410        0.77130
H          0.51240       -0.60010        0.56530
H          0.69530        0.45230       -0.88330
H          2.85260       -0.17780        1.23340
H          3.91860        2.20660       -1.90390
H          2.44330        1.23580       -2.11580
H          5.35900        0.17640       -1.82270
H          4.25700        0.11180       -3.25440
H          4.05080       -2.14170       -2.12050
H          2.53120       -2.20240       -0.24880
