11
5202	1
N          1.00850       -0.09930       -0.06280
C          2.29220       -0.07820       -0.06050
N          2.97280        1.10100       -0.05740
O          4.28570        1.11090       -0.05500
C          4.98020       -0.01940       -0.05550
N          4.32600       -1.20720       -0.05850
N          2.99500       -1.23860       -0.06100
H          0.45610        0.77110       -0.06240
H          2.45890        2.01070       -0.05690
H          6.06120        0.00620       -0.05350
H          2.50140       -2.15960       -0.06330
