13
5255	1
O          1.03700        0.13770       -0.40510
N          2.36040        0.16440       -0.18820
C          3.02010        1.42710        0.09570
C          4.53510        1.25120       -0.02810
O          4.91130        0.10290        0.63890
N          4.29260       -1.04560        0.40040
C          3.07260       -1.06200       -0.02440
H          0.62720        0.09350        0.49720
H          2.73670        1.74790        1.12100
H          2.70130        2.20810       -0.62760
H          5.08630        2.13810        0.34840
H          4.78220        1.11260       -1.10410
H          2.57450       -2.01020       -0.19790
