10
5192	1
O          1.03700       -0.05740        0.02600
C          2.25680       -0.01960        0.02660
C          2.97010        1.30100        0.00560
O          4.34920        1.14070        0.00970
N          4.96460       -0.03600        0.02960
C          4.31800       -1.15220        0.04720
O          2.96570       -1.16780        0.04610
H          2.67440        1.89000        0.89910
H          2.67630        1.86040       -0.90730
H          4.86430       -2.08870        0.06310
