13
5281	1
O          1.11360        0.04350        0.48520
C          2.31380        0.04940        0.26680
O          3.02530        1.20300        0.37950
C          4.29340        1.30470       -0.17530
C          5.11480        0.06390        0.19500
C          4.35350       -1.17850       -0.21100
C          3.01270       -1.19330       -0.13160
H          4.78830        2.23460        0.17510
H          4.20120        1.35230       -1.28310
H          5.22510        0.05240        1.30100
H          6.12780        0.07810       -0.25970
H          4.89120       -2.06430       -0.53440
H          2.45430       -2.09350       -0.36970
