16
5228	1
N          0.88060       -0.00490       -0.21890
C          2.29840       -0.06220        0.13850
C          3.02890        1.22780       -0.29840
C          3.25870        1.18180       -1.79780
N          4.06680        0.01170       -2.06480
N          3.74510       -1.20430       -1.49630
C          2.91680       -1.29390       -0.50550
H          0.43830        0.81550        0.25600
H          0.40010       -0.86290        0.13840
H          2.39170       -0.12950        1.24560
H          4.02870        1.26850        0.18950
H          2.46050        2.13060        0.01290
H          3.76930        2.09550       -2.17040
H          2.27760        1.08670       -2.31210
H          4.92180        0.09570       -2.63340
H          2.62650       -2.27610       -0.14750
