11
5215	1
O          0.96760       -0.12000       -0.01770
C          2.18830       -0.12080       -0.01510
N          2.86920       -1.29190       -0.02750
N          4.24690       -1.30070       -0.02460
C          4.92890       -0.20680       -0.01020
C          4.24690        1.14150        0.00430
O          2.86300        1.05390        0.00030
H          2.35810       -2.18710       -0.03920
H          6.01270       -0.25360       -0.00840
H          4.57070        1.71360       -0.88990
H          4.56680        1.69220        0.91320
