12
5214	1
N          1.03490       -0.01390       -0.01500
C          2.31910       -0.02450       -0.01350
N          3.03500       -1.24840       -0.02680
N          4.41040       -1.23890       -0.02500
C          5.07660       -0.13450       -0.01150
C          4.38740        1.21540        0.00330
O          3.00200        1.14240        0.00080
H          0.49380       -0.89100       -0.02580
H          2.53330       -2.14850       -0.03770
H          6.16080       -0.16990       -0.01060
H          4.71320        1.78700       -0.89050
H          4.71100        1.76620        0.91080
