15
5210	1
C          0.94210        0.15930       -0.04790
C          2.27740        0.09310       -0.04650
C          2.95680       -1.25150       -0.04360
C          4.45240       -1.15130       -0.04280
C          5.09550        0.02080       -0.04430
C          4.37440        1.34300       -0.04700
O          2.99280        1.24640       -0.04790
H          0.34120       -0.74550       -0.04690
H          0.44170        1.12270       -0.05000
H          2.64510       -1.81850       -0.94700
H          2.64380       -1.81530        0.86130
H          5.03220       -2.06940       -0.04090
H          6.18130        0.02460       -0.04360
H          4.68770        1.91060       -0.94780
H          4.68630        1.91350        0.85250
