16
5248	1
N          0.96940       -0.05040       -0.13800
N          2.35430        0.06910       -0.03750
C          2.99800        1.35940       -0.26640
C          4.45880        1.34250        0.19920
C          5.13430        0.09260       -0.34450
N          4.42170       -1.08210        0.11910
C          3.13420       -1.10120        0.22890
H          0.54310        0.87980       -0.35550
H          0.60470       -0.36090        0.79160
H          2.48310        2.15680        0.31150
H          2.92240        1.60150       -1.34850
H          4.48750        1.28770        1.31030
H          4.98120        2.26910       -0.12190
H          6.19150        0.04020       -0.00780
H          5.12080        0.11820       -1.45650
H          2.64000       -2.02490        0.51150
