13
5267	2
O          0.91150       -0.18490       -0.09040
C          2.12780       -0.09080       -0.04790
C          2.77610        1.24430        0.22380
C          4.24580        1.17990       -0.19150
N          4.84640       -0.02060        0.34500
N          4.23650       -1.24080        0.13670
C          2.96890       -1.31380       -0.10500
H          2.66900        1.47230        1.30580
H          2.28780        2.05020       -0.36580
H          4.80780        2.08990        0.10900
H          4.27710        1.10170       -1.30090
H          5.74350        0.02710        0.84910
H          2.50740       -2.28320       -0.26210
