11
5188	2
O          0.97360        0.22920       -0.03560
C          2.19240        0.16800       -0.03960
C          2.87530       -1.17500       -0.02570
N          4.32380       -1.06740       -0.03260
C          4.95280        0.05770       -0.04900
N          4.24050        1.28630       -0.06130
O          2.92000        1.30830       -0.05650
H          2.55670       -1.75140       -0.91960
H          2.56380       -1.72920        0.88470
H          6.03770        0.06450       -0.05330
H          4.76170        2.17430       -0.07430
