14
5271	1
O          0.92350       -0.05850       -0.43060
C          2.12030       -0.00430       -0.19650
C          2.82310        1.33830       -0.13190
N          4.20200        1.22400        0.39100
C          4.91470        0.10790       -0.23940
C          4.22090       -1.19270        0.07810
C          2.88440       -1.24550        0.04490
H          2.25600        2.01300        0.54580
H          2.82840        1.79540       -1.14460
H          4.16960        1.05630        1.42490
H          5.97650        0.07000        0.08440
H          4.90240        0.26140       -1.34140
H          4.80010       -2.08040        0.31310
H          2.36820       -2.18610        0.21170
