11
5328	2
N          0.92710        0.06960       -0.14770
C          2.20040        0.04810       -0.01250
N          2.90600        1.20890        0.02130
C          4.25490        1.18080        0.16470
N          4.90120       -0.00830        0.27460
H          5.93950       -0.03040        0.38510
C          4.19670       -1.16860        0.24090
N          2.84770       -1.13950        0.09750
H          0.41560        0.96080       -0.23290
H          4.81330        2.10740        0.19120
H          4.70870       -2.11790        0.32820
