15
5378	1
C          0.91610        0.07760       -0.16540
C          2.22970        0.08350        0.09560
C          2.95950        1.36030        0.24030
C          4.27420        1.36800        0.50170
C          5.07880        0.09610        0.66200
C          4.28500       -1.18290        0.50440
C          2.97030       -1.18680        0.24300
H          0.36780        1.00890       -0.27450
H          0.37570       -0.85840       -0.27250
H          2.43210        2.30460        0.13520
H          4.78530        2.32060        0.60310
H          5.53750        0.09910        1.67290
H          5.88940        0.09870       -0.09630
H          4.80410       -2.13100        0.60780
H          2.45080       -2.13580        0.13990
