8
5356	1
O          1.02740       -0.11700        0.05640
C          2.24400       -0.08800        0.05840
N          2.89500        1.10090        0.05870
N          4.22600        1.12290        0.06090
N          4.91790       -0.01430        0.06290
C          4.26040       -1.19970        0.06260
O          2.93540       -1.21830        0.06040
H          4.81570       -2.12750        0.06420
