12
5301	1
O          1.01470        0.17270       -0.26260
N          2.34760        0.15690       -0.11450
C          3.07850        1.40850       -0.10570
C          4.56070        1.20110        0.06180
N          5.07070        0.02100        0.17710
N          4.30110       -1.12540        0.15470
C          3.02110       -1.08680        0.01820
H          0.65420        0.22950        0.65960
H          2.71090        2.03850        0.73160
H          2.89960        1.94130       -1.06340
H          5.21430        2.06670        0.08530
H          2.45570       -2.01290        0.00540
