10
5337	1
N          0.93800        0.03310       -0.05440
C          2.21970        0.05690       -0.05200
N          2.88550        1.24070       -0.04860
N          4.21790        1.26480       -0.04610
C          4.92410        0.10740       -0.04690
N          4.26090       -1.07550       -0.05030
N          2.92820       -1.10330       -0.05280
H          2.43450       -2.02420       -0.05540
H          0.38950        0.90610       -0.05390
H          6.00520        0.12730       -0.04480
