13
5307	1
C          0.87380       -0.14800       -0.00190
C          2.21260       -0.10420        0.00110
C          2.92890        1.21640       -0.01090
C          4.42650        1.04970       -0.00530
N          4.99500       -0.11230        0.00840
N          4.28960       -1.30260        0.01900
C          3.00180       -1.34860        0.01620
H          0.29210        0.76910       -0.01300
H          0.34840       -1.09850        0.00680
H          2.63520        1.80120        0.88680
H          2.63990        1.78220       -0.92230
H          5.04740        1.93930       -0.01310
H          2.50380       -2.31340        0.02500
