12
5318	2
N          0.99960        0.04190       -0.03460
C          2.40710        0.06880        0.09960
C          3.09550        1.28460        0.14040
C          4.48140        1.27420        0.27370
C          5.14560        0.05270        0.36290
N          4.43340       -1.10410        0.31840
N          3.10400       -1.09650        0.19060
H          0.46130        0.91800       -0.10350
H          0.49980       -0.85860       -0.06420
H          2.56360        2.22510        0.06990
H          5.03580        2.20320        0.30770
H          6.22190        0.02240        0.46690
