11
5327	1
O          1.14620       -0.01820        0.25190
C          2.35550       -0.04380        0.10990
N          3.05510        1.12040        0.05910
C          4.40450        1.11600       -0.09870
C          5.08820       -0.09330       -0.21080
C          4.36200       -1.28180       -0.15750
N          3.01210       -1.24580        0.00120
H          2.47510       -2.14160        0.04010
H          4.94600        2.05170       -0.13700
H          6.16310       -0.10920       -0.33680
H          4.87340       -2.23230       -0.24260
