11
5319	2
O          1.07270       -0.02160       -0.10920
C          2.41050        0.01210        0.05080
C          3.09340        1.22990        0.13460
C          4.47580        1.22100        0.30040
C          5.14190       -0.00020        0.37830
N          4.43500       -1.15790        0.29150
N          3.10890       -1.15180        0.13250
H          0.54730        0.78900       -0.17000
H          2.55950        2.16970        0.07220
H          5.02580        2.15070        0.36800
H          6.21560       -0.02960        0.50720
