15
5302	1
C          0.99200       -0.01850        0.07650
N          2.43650        0.03930        0.07710
C          3.10250        1.33980        0.06670
C          4.60410        1.23760        0.06890
C          5.21940        0.05500        0.07940
C          4.43250       -1.18420        0.08910
N          3.14540       -1.14840        0.08770
H          0.54690        1.00010        0.06770
H          0.64080       -0.55030        0.98560
H          0.64220       -0.56550       -0.82400
H          2.79230        1.91460        0.96540
H          2.79380        1.89930       -0.84200
H          5.19570        2.14800        0.06180
H          6.30370        0.00580        0.08080
H          4.94200       -2.14160        0.09760
