13
5339	1
C          0.88090        0.07070       -0.08570
C          2.21620        0.03600       -0.08580
O          2.92660        1.19740       -0.08680
C          4.29030        1.21440       -0.08700
C          4.99430        0.06720       -0.08620
C          4.28340       -1.23190       -0.08520
C          2.94460       -1.25460       -0.08500
H          0.35950        1.02290       -0.08620
H          0.30040       -0.84710       -0.08490
H          4.81190        2.16570       -0.08770
H          6.07930        0.09200       -0.08640
H          4.84640       -2.15980       -0.08470
H          2.41180       -2.20140       -0.08430
