15
5371	2
C          0.86280       -0.06850       -0.15900
C          2.36960       -0.07980        0.08900
C          2.78180        1.20620        0.77850
C          3.38950        1.19060        1.96800
N          3.66410       -0.04140        2.60870
C          3.30480       -1.26660        1.99090
N          2.71720       -1.28010        0.84180
H          0.57890        0.81110       -0.77580
H          0.31140       -0.02660        0.80520
H          0.56130       -0.98880       -0.70350
H          2.88920       -0.12300       -0.89190
H          2.57970        2.15790        0.29550
H          3.67520        2.12360        2.44400
H          4.13300       -0.04840        3.52580
H          3.52730       -2.20440        2.48850
