14
5298	1
C          0.87030        0.06080        0.12070
C          2.39630        0.04010        0.10160
O          2.85610        1.17240       -0.57010
N          3.62510        1.15240       -1.65380
C          4.03510        0.05440       -2.18780
C          3.65720       -1.23350       -1.60020
C          2.88310       -1.25090       -0.51650
H          0.51180        0.99190        0.60880
H          0.47850       -0.80820        0.69190
H          0.47010        0.02360       -0.91550
H          2.76640        0.08130        1.14820
H          4.66270        0.08440       -3.07180
H          4.00530       -2.16110       -2.04340
H          2.59990       -2.20100       -0.07270
