11
5340	1
O          1.02070       -0.11230        0.27660
C          2.22900       -0.06780        0.13250
C          2.87580        1.16910        0.02980
C          4.25940        1.19310       -0.13470
C          4.96040       -0.00950       -0.19240
C          4.25240       -1.20910       -0.08320
O          2.92970       -1.19930        0.07330
H          2.31520        2.09480        0.07670
H          4.78410        2.13620       -0.21670
H          6.03520       -0.01440       -0.31970
H          4.78020       -2.15240       -0.12590
