15
5432	1
C          0.91520        0.05890       -0.09330
C          2.41930        0.05070       -0.09900
C          3.11130        1.20270       -0.09090
C          4.58080        1.17880       -0.09630
C          5.22270        0.00690       -0.10930
O          4.53380       -1.16610       -0.11770
C          3.14700       -1.28070       -0.11390
H          0.50300        1.09080       -0.08240
H          0.54610       -0.47510        0.80720
H          0.53920       -0.45890       -1.00030
H          2.59830        2.15990       -0.08020
H          5.13990        2.10910       -0.08970
H          6.30750       -0.01210       -0.11320
H          2.84520       -1.86190        0.78260
H          2.83880       -1.84510       -1.01890
