17
5422	1
C          0.98070       -0.12040        0.11440
C          2.47520       -0.06370       -0.00860
C          3.11110        1.11500       -0.19940
C          4.61920        1.17500       -0.29590
C          5.26980       -0.11950        0.21840
C          4.50760       -1.31190       -0.34360
O          3.18640       -1.22510        0.06650
H          0.51600        0.88580        0.03440
H          0.71010       -0.55660        1.09840
H          0.57060       -0.76380       -0.69160
H          2.54290        2.03360       -0.31420
H          5.01510        2.01540        0.31310
H          4.87650        1.36010       -1.36080
H          5.17890       -0.16040        1.32680
H          6.34800       -0.14460       -0.04800
H          4.94400       -2.26860        0.01240
H          4.55760       -1.29070       -1.45470
