13
5441	2
C          1.02280        0.06600       -0.00450
C          2.51260        0.07150        0.11970
N          3.19530       -1.09800        0.21380
N          4.52300       -1.09760        0.32460
C          5.20910        0.07140        0.34470
N          4.53010        1.24250        0.25080
N          3.20070        1.24430        0.13980
H          0.63320       -0.97420       -0.00380
H          0.72640        0.55920       -0.95370
H          0.57590        0.61670        0.84940
H          6.28740        0.06780        0.43480
H          5.05280        2.14690        0.26560
H          2.68960        2.15330        0.06820
