12
5442	2
C          0.94110        0.05790       -0.07960
C          2.43830        0.04160       -0.08480
N          3.10780        1.14390       -0.09230
N          4.49130        1.12750       -0.09710
C          5.14590        0.01190       -0.09420
O          4.47320       -1.16920       -0.08630
N          3.15050       -1.18710       -0.08150
H          0.55610        1.10010       -0.08310
H          0.56820       -0.45920        0.82900
H          0.56180       -0.46770       -0.98060
H          6.23010        0.01900       -0.09810
H          2.64750       -2.08610       -0.07550
