15
5450	2
C          0.92380        0.11630       -0.08850
C          2.42790        0.07510       -0.09150
C          3.14400        1.21530       -0.08140
N          4.56520        1.19250       -0.08410
C          5.23210        0.09170       -0.09610
N          4.56530       -1.16360       -0.10740
C          3.11850       -1.26980       -0.10590
H          0.53330        1.15660       -0.07750
H          0.54110       -0.41010        0.81070
H          0.53800       -0.39230       -0.99660
H          2.63930        2.17660       -0.07110
H          6.31650        0.12380       -0.09760
H          5.12830       -2.02660       -0.11690
H          2.80370       -1.84300        0.79190
H          2.80060       -1.82510       -1.01380
