18
5403	1
C          0.93680        0.05390        0.07900
C          2.44130        0.04270        0.08430
C          3.13400        1.19620       -0.03070
C          4.64650        1.24250        0.05580
N          5.24180       -0.02130        0.52390
C          4.63570       -1.16160       -0.15870
C          3.15530       -1.28120        0.22600
H          0.52550        1.08070       -0.02500
H          0.56190       -0.37760        1.03080
H          0.56410       -0.55960       -0.76760
H          2.60480        2.13370       -0.17820
H          4.93350        2.03890        0.77650
H          5.05660        1.52320       -0.93750
H          5.08510       -0.12410        1.55470
H          5.16890       -2.10100        0.10140
H          4.72860       -1.01410       -1.25890
H          3.03300       -1.62840        1.27460
H          2.70420       -2.03870       -0.45090
