9
5392	1
O          0.98860        0.05920        0.06080
C          2.20390        0.08450       -0.00930
C          2.88680        1.29450       -0.02600
N          4.24060        1.26910       -0.10520
O          4.89760        0.13210       -0.16510
C          4.26240       -1.03590       -0.15040
N          2.90760       -1.07140       -0.07230
H          2.35930        2.23870        0.02270
H          4.82530       -1.95780       -0.20070
