11
5467	1
F          0.83760       -0.11680       -0.04390
C          2.19570       -0.07650       -0.05920
C          2.83680        1.09120       -0.07760
C          4.34270        1.13500       -0.09450
O          4.93150       -0.12730       -0.08860
N          4.26060       -1.27450       -0.07010
C          2.97320       -1.31950       -0.05560
H          2.27360        2.01940       -0.08050
H          4.69190        1.69490        0.79780
H          4.67220        1.67730       -1.00500
H          2.46600       -2.27810       -0.04070
