17
5407	1
C          0.96460       -0.04360       -0.00480
C          2.46570       -0.09190        0.06830
C          3.18340        1.03310        0.29260
O          4.54570        1.00410        0.29380
C          5.26130       -0.06550       -0.21990
C          4.64300       -1.35630        0.29880
C          3.17200       -1.41760       -0.14430
H          0.57210        0.98350        0.15530
H          0.53500       -0.70810        0.77360
H          0.63200       -0.39450       -1.00400
H          2.68000        1.97910        0.46640
H          6.32500        0.01900        0.08640
H          5.20980       -0.05270       -1.33110
H          4.69040       -1.32400        1.41020
H          5.19170       -2.25650       -0.05140
H          2.68300       -2.22400        0.44350
H          3.08910       -1.67020       -1.22340
