16
5419	2
C          1.08540       -0.10380       -0.20690
C          2.57300       -0.07080       -0.03850
N          3.19310        1.06270        0.00790
C          4.64130        1.14740        0.09280
C          5.29870       -0.17370       -0.34790
N          4.66860       -1.28380        0.36740
N          3.31020       -1.29150        0.04350
H          0.66890        0.92480       -0.26310
H          0.62650       -0.62970        0.65600
H          0.83060       -0.64460       -1.14200
H          4.91420        1.38450        1.14340
H          5.01180        1.96730       -0.55770
H          6.39090       -0.14540       -0.14700
H          5.15060       -0.32000       -1.44140
H          4.75300       -1.09540        1.39400
H          2.83820       -2.18950       -0.13650
