15
5423	1
C          0.88410       -0.03270        0.05750
C          2.38270        0.01670        0.10590
C          3.05270        1.16760       -0.05490
C          4.56270        1.16140        0.05910
O          5.09370       -0.06040        0.56420
C          4.42960       -1.17030       -0.00270
O          3.08310       -1.12450        0.30610
H          0.44100        0.97140       -0.11620
H          0.49870       -0.42770        1.02040
H          0.56550       -0.70730       -0.76420
H          2.53080        2.09780       -0.26040
H          4.82930        1.95000        0.79300
H          5.02880        1.42490       -0.91430
H          4.86290       -2.10970        0.39760
H          4.57460       -1.17910       -1.10730
