12
5581	1
F          0.98110       -0.03860        0.09030
C          2.35900       -0.07840       -0.03160
C          3.00840        1.00350        0.82040
O          4.27620        0.53580        1.24270
C          4.12670       -0.85960        1.43210
C          2.96410       -1.23840        0.60810
O          2.62670       -2.39230        0.39530
H          2.67960       -0.06540       -1.09530
H          2.40500        1.16760        1.74370
H          3.06820        1.96570        0.26980
H          3.95980       -1.10900        2.50180
H          5.03080       -1.37470        1.04430
