16
5571	1
O          1.00040        0.12330        0.12400
C          2.39460        0.08340       -0.02030
C          3.05790        1.18540        0.80630
N          4.38350        0.67800        1.15630
C          4.17140       -0.73930        1.46410
C          2.99500       -1.10570        0.63160
C          2.56110       -2.36000        0.46600
H          0.68960        0.89730       -0.41390
H          2.69860        0.06250       -1.09130
H          2.48850        1.31220        1.75860
H          3.08650        2.16470        0.28390
H          4.79610        1.19060        1.97000
H          3.94090       -0.90590        2.53980
H          5.07530       -1.31170        1.16600
H          3.06130       -3.18430        0.96490
H          1.70500       -2.56720       -0.16840
