20
5522	1
C          0.97830       -0.06990       -0.09070
C          2.49310       -0.06540        0.11120
C          2.99970        1.00920        1.06540
C          4.45490        0.58090        1.20300
C          4.33340       -0.91590        1.47930
C          3.05780       -1.36060        0.72930
N          3.32270       -2.39430       -0.27060
H          0.65300        0.90280       -0.51700
H          0.45640       -0.22970        0.87670
H          0.68950       -0.87830       -0.79450
H          2.98700        0.11820       -0.87250
H          2.48830        0.92590        2.05240
H          2.87840        2.04200        0.67500
H          5.03880        1.13100        1.97110
H          4.95430        0.72590        0.21740
H          4.12140       -1.02200        2.56750
H          5.25880       -1.48920        1.25600
H          2.35450       -1.75790        1.49790
H          3.99060       -2.03550       -0.99090
H          2.42820       -2.65610       -0.74360
