13
5498	1
C          0.94020       -0.06400        0.02710
C          2.43410       -0.02600       -0.05370
C          3.12970        1.19190       -0.06140
N          4.48690        1.18800       -0.13570
C          5.18100        0.02160       -0.20290
C          4.49080       -1.19190       -0.19540
N          3.13380       -1.19100       -0.12110
H          0.50690        0.95780        0.07640
H          0.63310       -0.62270        0.93590
H          0.53430       -0.57750       -0.86930
H          2.59910        2.13380       -0.00880
H          6.26100        0.03610       -0.26160
H          5.03010       -2.12810       -0.24830
