15
5548	1
O          1.07600       -0.05820       -0.28610
C          2.43570       -0.05040        0.05140
C          2.79230        0.98820        1.10630
O          4.01250        0.57540        1.70070
C          4.19010       -0.78410        1.33890
C          2.84970       -1.27370        0.81090
O          2.92520       -2.44610        0.03990
H          0.90810        0.78880       -0.77530
H          3.08130        0.06790       -0.85240
H          2.01860        1.00370        1.90780
H          2.86850        1.99950        0.65410
H          4.52850       -1.40490        2.19520
H          4.96050       -0.81520        0.53540
H          2.15450       -1.43450        1.66850
H          3.54870       -2.27600       -0.71380
