15
5578	1
O          1.01880        0.10360        0.23500
C          2.41120        0.04570        0.08160
C          3.09820        1.13240        0.90350
O          4.35910        0.64470        1.31600
C          4.17310       -0.73820        1.55250
C          3.00010       -1.12470        0.73660
C          2.57650       -2.38370        0.57760
H          0.71640        0.88840       -0.29190
H          2.71270        0.00960       -0.98970
H          2.51510        1.33290        1.83310
H          3.17290        2.08040        0.33060
H          4.00000       -0.94430        2.63080
H          5.06840       -1.28630        1.18940
H          3.08340       -3.20100        1.08110
H          1.72250       -2.60140       -0.05630
