11
5508	1
O          0.98630       -0.09700       -0.18960
C          2.32250       -0.11990       -0.03290
N          3.02730        1.04420        0.00800
C          4.37680        1.03560        0.16580
C          5.05350       -0.17660        0.28780
C          4.31690       -1.35900        0.24380
N          2.96830       -1.31080        0.08470
H          0.50840        0.73990       -0.27510
H          4.92290        1.96890        0.19640
H          6.12820       -0.19940        0.41400
H          4.81590       -2.31440        0.33590
