9
5489	1
F          0.99780       -0.09680        0.00460
C          2.35340       -0.07990        0.00670
C          3.04860        1.12300        0.00960
N          4.40520        1.10790        0.01170
N          5.07560       -0.04600        0.01110
N          4.43420       -1.21630        0.00840
C          3.07840       -1.26520        0.00620
H          2.51650        2.06500        0.01010
H          2.56990       -2.22010        0.00390
