16
5558	1
C          1.10800        0.10890        0.50850
C          2.50540       -0.04720       -0.10850
O          3.30730        1.06110        0.27000
C          4.30610        0.56050        1.14190
C          3.84180       -0.80020        1.62940
C          3.22720       -1.31010        0.36350
F          4.24300       -1.61510       -0.53300
H          0.63300        1.03310        0.11660
H          1.14280        0.18630        1.61390
H          0.47100       -0.75720        0.22950
H          2.37700       -0.09290       -1.21210
H          4.49140        1.24230        1.99840
H          5.24560        0.45420        0.55430
H          3.04960       -0.66310        2.39650
H          4.64170       -1.43730        2.06300
H          2.58370       -2.20970        0.47000
