15
5547	1
N          1.13420       -0.02000       -0.16240
C          2.56100       -0.06000        0.15470
C          3.01070        1.02180        1.12740
O          4.24390        0.58910        1.67650
C          4.34900       -0.79200        1.37140
C          2.96810       -1.26060        0.94840
F          2.98790       -2.43470        0.21670
H          0.92290        0.87980       -0.65120
H          0.56590       -0.05640        0.71520
H          3.16860       -0.00540       -0.77990
H          2.28770        1.11560        1.96950
H          3.10230        2.00190        0.61330
H          4.72030       -1.38470        2.23400
H          5.06290       -0.89450        0.52250
H          2.31790       -1.36850        1.84770
