19
5523	1
C          0.95410       -0.07240       -0.00800
C          2.47570       -0.07220        0.11810
C          3.04700        1.01330        1.02230
C          4.49060        0.53500        1.15230
C          4.28930       -0.92840        1.52350
C          3.06880       -1.37760        0.68990
O          3.39790       -2.27630       -0.33970
H          0.60900        0.89900       -0.42090
H          0.48300       -0.22840        0.98580
H          0.63250       -0.88600       -0.69190
H          2.92170        0.10780       -0.88880
H          2.55510        0.98380        2.02220
H          2.94910        2.03630        0.60030
H          5.09440        1.09930        1.89440
H          4.99190        0.60150        0.15950
H          3.96780       -0.91560        2.59120
H          5.18640       -1.58060        1.46200
H          2.37600       -1.88730        1.39660
H          4.17480       -1.90160       -0.83190
