14
5641	1
C          1.19140        0.07330        0.04080
N          2.61130        0.09910       -0.23990
O          3.24400        1.24830       -0.53410
C          4.48840        0.79910       -1.06160
C          4.78560       -0.60900       -0.50340
C          3.41180       -0.96740       -0.19430
O          3.04260       -2.08200        0.14490
H          0.97430        0.73420        0.90560
H          0.83370       -0.95100        0.27950
H          0.63460        0.44270       -0.84550
H          5.32470        1.50100       -0.86040
H          4.34700        0.72210       -2.16370
H          5.33990       -0.58910        0.45930
H          5.29350       -1.23840       -1.26510
