14
5625	1
O          1.18060        0.06000        0.66390
N          2.41080        0.09080        0.13030
C          3.23450        1.26410        0.10920
C          4.40670        0.80120       -0.77340
C          4.50570       -0.72270       -0.56370
C          3.09130       -1.01000       -0.21220
O          2.62800       -2.13460       -0.10120
H          0.56860        0.23060       -0.09730
H          3.55610        1.47940        1.15110
H          2.73000        2.14660       -0.34000
H          5.35090        1.38060       -0.70140
H          4.03310        0.91920       -1.81780
H          5.13040       -0.99200        0.31460
H          4.87330       -1.21990       -1.48700
