13
5601	2
N          0.98120       -0.07070        0.17360
C          2.44050       -0.05620        0.07310
C          3.08800        1.04490        0.95140
O          4.29260        0.52430        1.50600
N          4.07750       -0.80350        1.50270
C          3.08000       -1.19300        0.71770
O          2.81310       -2.36630        0.50840
H          0.60790        0.81910       -0.22930
H          0.67910       -0.13630        1.17340
H          2.77620       -0.03940       -0.98660
H          2.43110        1.27370        1.82110
H          3.24440        1.98050        0.37470
H          4.67890       -1.45900        2.02290
