15
5632	1
C          1.09270       -0.14080        0.26600
N          2.48960       -0.05880       -0.09580
C          3.22890        1.15760       -0.27500
C          4.65590        0.63200       -0.65110
O          4.56610       -0.75570       -0.64210
C          3.33020       -1.13760       -0.32520
N          2.96250       -2.36480       -0.24250
H          0.66340        0.87640        0.38800
H          0.98580       -0.69180        1.22390
H          0.53060       -0.67350       -0.52960
H          3.24640        1.73660        0.67350
H          2.78580        1.75520       -1.10070
H          5.40720        0.96220        0.09770
H          4.94960        0.98030       -1.66420
H          3.63260       -3.12590       -0.42430
