16
5621	1
C          1.13240       -0.10690        0.26030
N          2.54120       -0.04110       -0.06550
C          3.32320        1.16290        0.00320
C          4.62070        0.74030       -0.70580
C          4.74280       -0.77630       -0.47700
C          3.30400       -1.11410       -0.33090
O          2.87260       -2.25730       -0.31070
H          0.73950        0.90450        0.49860
H          0.97810       -0.76420        1.14220
H          0.56670       -0.51280       -0.60490
H          3.48990        1.40640        1.07490
H          2.85880        2.02130       -0.52950
H          5.52470        1.35390       -0.50950
H          4.39060        0.84280       -1.79260
H          5.24530       -1.02360        0.48240
H          5.25540       -1.25770       -1.33750
