16
5687	1
N          1.08380       -0.04860       -0.07060
C          2.55070       -0.06310        0.04550
C          3.10800       -1.28970       -0.71250
C          3.23490       -0.75190       -2.09400
C          3.24490        0.61990       -2.09690
C          3.11410        1.16200       -0.71550
O          4.37310        1.57260       -0.23970
H          0.68390       -0.87190        0.43610
H          0.77090       -0.08980       -1.06850
H          2.78260       -0.05850        1.13310
H          2.43250       -2.16650       -0.61560
H          4.13190       -1.56130       -0.37760
H          3.42270       -1.34950       -2.97590
H          3.43670        1.21340       -2.98090
H          2.40620        2.01490       -0.63280
H          4.96180        0.77550       -0.17480
