9
5679	1
O          1.27430        0.05060        0.38960
C          2.41320        0.06130       -0.04830
O          3.05860        1.15290       -0.46720
C          4.34070        0.79250       -0.90160
O          4.42790       -0.59350       -0.71700
C          3.27850       -1.04220       -0.20620
O          3.04570       -2.20860        0.06640
H          5.11150        1.30960       -0.29190
H          4.46650        1.04480       -1.97580
