11
5668	1
O          1.37820       -0.05690        0.79550
C          2.44810        0.05020        0.21740
C          3.15620        1.32240       -0.05610
C          4.43110        0.81060       -0.80490
O          4.33900       -0.57570       -0.87060
C          3.22230       -1.02620       -0.29880
O          2.92440       -2.20800       -0.23700
H          3.41600        1.82600        0.89960
H          2.53630        1.97920       -0.70310
H          5.35020        1.09830       -0.25100
H          4.47110        1.22690       -1.83410
