14
5633	1
C          1.19720       -0.03100        0.32280
N          2.58760        0.05940       -0.06630
C          3.33390        1.28150       -0.16850
C          4.73810        0.76740       -0.61690
O          4.60440       -0.61130       -0.70340
C          3.36360       -0.97290       -0.38170
O          2.98260       -2.13350       -0.37810
H          0.78650        0.97980        0.53190
H          1.10270       -0.65060        1.23960
H          0.60660       -0.49300       -0.49630
H          3.38090        1.78460        0.82150
H          2.87860        1.94470       -0.93550
H          5.51400        1.02210        0.13640
H          5.01400        1.18000       -1.61080
