16
5590	2
C          0.88200       -0.03960        0.03710
C          2.40940       -0.10940       -0.01790
C          3.09540        1.03280        0.78120
N          4.37140        0.50750        1.32040
N          4.11360       -0.85000        1.43260
C          3.01340       -1.25420        0.68120
N          2.69500       -2.48470        0.49460
H          0.53210        0.88860       -0.46190
H          0.51960       -0.04550        1.08740
H          0.44600       -0.91210       -0.49400
H          2.76550       -0.14560       -1.07050
H          2.45050        1.25850        1.66460
H          3.21010        1.97590        0.20710
H          4.52180        0.90210        2.27800
H          4.77300       -1.50400        1.88000
H          3.21070       -3.24110        0.96750
