12
5603	2
O          0.93440       -0.10520        0.19950
C          2.32650       -0.06350        0.05030
C          2.96750        1.01960        0.95170
O          4.18060        0.50250        1.48990
N          3.98150       -0.82620        1.45300
C          2.98390       -1.20600        0.66400
O          2.72500       -2.37670        0.43130
H          0.58740        0.70550       -0.25540
H          2.64100       -0.04050       -1.01690
H          2.30330        1.21210        1.82520
H          3.10960        1.97190        0.39900
H          4.59120       -1.48790        1.95540
