13
5651	1
C          1.03660        0.03060        0.16910
C          2.35080        0.04760       -0.07770
C          3.20880        1.24800       -0.10120
O          4.53690        0.80850       -0.40350
C          4.54770       -0.61160       -0.57000
C          3.16710       -1.06830       -0.36150
O          2.79180       -2.22900       -0.42480
H          0.50740        0.95530        0.37630
H          0.48500       -0.90450        0.16520
H          3.19360        1.74090        0.89420
H          2.85610        1.94740       -0.88880
H          5.21520       -1.07660        0.18600
H          4.87740       -0.87000       -1.59840
