15
5618	1
C          1.08940        0.24360        0.15200
C          2.56440        0.02010       -0.18120
O          3.33480        1.13100        0.25120
C          4.28000        0.64980        1.21030
O          4.10830       -0.70220        1.34690
C          3.13520       -1.11020        0.56110
C          2.75370       -2.38770        0.47120
H          0.71750        1.13820       -0.39040
H          0.95690        0.40730        1.24330
H          0.48290       -0.63280       -0.15990
H          2.70250       -0.13610       -1.27300
H          4.10490        1.14350        2.18940
H          5.31150        0.85470        0.85400
H          3.24910       -3.14840        1.06610
H          1.94880       -2.67730       -0.19660
