14
5729	1
C          1.01720       -0.00570        0.19500
C          2.51870       -0.12600       -0.05410
O          2.78690       -1.14400       -0.96590
N          3.38230       -0.71780       -2.06620
C          3.58040        0.53470       -2.04070
C          3.07690        1.05130       -0.79910
C          3.11080        2.32410       -0.39580
H          0.64260       -0.93630        0.67080
H          0.47420        0.15090       -0.76200
H          0.80880        0.84810        0.87380
H          3.06590       -0.29600        0.89810
H          4.05610        1.08720       -2.84020
H          3.54790        3.08940       -1.02950
H          2.70260        2.60350        0.57000
