16
5711	1
C          0.99380        0.02700        0.13140
C          2.50930       -0.12190       -0.01630
C          2.90720       -1.33840       -0.91710
N          3.61220       -0.73770       -2.03690
C          3.67680        0.52340       -1.91840
N          3.06210        0.97550       -0.75940
N          3.00700        2.30540       -0.36050
H          0.57860       -0.85740        0.65910
H          0.51080        0.11310       -0.86580
H          0.75730        0.93600        0.72370
H          2.99610       -0.18760        0.98130
H          2.02370       -1.90030       -1.29050
H          3.59250       -2.02410       -0.37460
H          4.16300        1.16480       -2.64150
H          2.51890        2.84880       -1.10810
H          3.98710        2.65720       -0.26820
