15
5727	1
C          0.91290        0.10010        0.15630
C          2.40860       -0.03540       -0.12320
O          2.64370       -1.07870       -1.01560
C          3.23850       -0.65990       -2.15340
C          3.46260        0.68250       -2.13640
C          2.96310        1.15000       -0.87020
C          2.99840        2.41450       -0.43990
H          0.53940       -0.82430        0.64500
H          0.35240        0.25620       -0.79060
H          0.72450        0.95890        0.83450
H          2.96710       -0.20240        0.82320
H          3.50150       -1.31650       -2.97170
H          3.92630        1.26230       -2.92380
H          3.42640        3.19480       -1.06160
H          2.60070        2.67300        0.53600
