17
5713	1
C          1.12330        0.21900        0.20500
C          2.62720        0.07140       -0.04180
C          2.95950       -1.17180       -0.92670
C          3.65350       -0.53560       -2.09790
N          3.72080        0.72560       -1.99300
N          3.14990        1.15540       -0.83900
C          3.13540        2.54740       -0.45150
H          0.74750       -0.66230        0.76660
H          0.57520        0.29520       -0.75860
H          0.91950        1.12760        0.80890
H          3.17570        0.02270        0.92440
H          2.05290       -1.70270       -1.28940
H          3.64550       -1.87230       -0.40480
H          4.05230       -1.07240       -2.94800
H          3.63030        3.16880       -1.22790
H          3.67820        2.67340        0.50850
H          2.08990        2.89920       -0.33310
