14
5733	1
N          1.12040        0.06440        0.22360
N          2.47800        0.00850       -0.07800
C          3.22670       -1.21520       -0.28840
C          4.61860       -0.67590       -0.57020
C          4.64090        0.70750       -0.51910
C          3.30390        1.13190       -0.21040
N          2.90410        2.34430       -0.07120
H          0.73800       -0.90830        0.25830
H          0.64020        0.57390       -0.55270
H          2.83060       -1.77660       -1.16070
H          3.21940       -1.84660        0.62500
H          5.48630       -1.28550       -0.78370
H          5.50820        1.33330       -0.68240
H          3.55990        3.13180       -0.18020
