11
5746	1
N          0.93480        0.03970        0.20180
N          2.33300       -0.05890        0.09450
N          3.15650        0.97440        0.07750
H          2.86100        1.97390        0.14060
N          4.41720        0.56750       -0.03260
C          4.40010       -0.78640       -0.08750
C          3.08450       -1.17650       -0.00620
O          2.65590       -2.31670       -0.02060
H          0.58920        0.57520       -0.62590
H          0.51420       -0.91660        0.16960
H          5.27430       -1.41720       -0.17820
