14
5708	1
C          1.06640        0.01440        0.20270
C          2.55940       -0.08880       -0.10000
O          2.80360       -1.10940       -0.99970
N          3.41190       -0.70290       -2.08520
C          3.62760        0.54400       -2.07300
C          3.10880        1.17530       -0.82960
O          4.12180        1.82140       -0.10000
H          0.71280       -0.92740        0.67300
H          0.49030        0.18570       -0.73190
H          0.88020        0.85530        0.90380
H          3.12300       -0.29510        0.83630
H          4.11330        1.06470       -2.88730
H          2.31590        1.90190       -1.11030
H          4.86200        1.17330        0.03900
