11
5742	1
O          1.00840        0.18590       -0.21660
N          2.35180        0.07980       -0.07560
N          3.18470        1.10490       -0.06120
H          2.90100        2.10560       -0.15410
C          4.44240        0.63450        0.09190
C          4.39740       -0.75290        0.17680
C          3.05930       -1.06210        0.06590
O          2.57340       -2.17870        0.08940
H          0.66270        0.29110        0.70650
H          5.32820        1.25390        0.13810
H          5.22850       -1.43440        0.30130
