15
5688	1
N          1.03250       -0.08240       -0.10520
C          2.49880       -0.09470        0.01600
C          3.06700       -1.32000       -0.73290
C          3.18460       -0.78700       -2.11510
C          3.18300        0.58390       -2.11890
C          3.06430        1.12430       -0.73950
F          4.33400        1.44460       -0.29160
H          0.63260       -0.90320        0.40550
H          0.72210       -0.13070       -1.10350
H          2.72960       -0.08620        1.10370
H          2.39980       -2.20230       -0.62900
H          4.09540       -1.57450       -0.39760
H          3.37260       -1.38480       -2.99700
H          3.36960        1.17720       -3.00400
H          2.39230        2.00360       -0.63790
