12
5814	1
N          0.90710        0.05890       -0.16930
C          2.36010        0.04710       -0.00880
C          2.98600       -1.16720       -0.62820
C          3.82950       -0.78920       -1.64760
O          3.85030        0.53880       -1.79680
C          3.02340        1.07520       -0.88220
O          2.84410        2.27830       -0.78140
H          0.49950       -0.73520        0.37580
H          0.64900       -0.06630       -1.17610
H          2.64190        0.16350        1.05950
H          2.81020       -2.19140       -0.32680
H          4.40570       -1.47340       -2.25580
