14
5824	1
C          1.12810       -0.05850       -0.15140
N          2.55320       -0.09110        0.09210
C          3.32620       -1.24380        0.21500
C          4.64020       -0.90030        0.44260
C          4.78730        0.60500        0.48010
C          3.34800        0.98250        0.23690
O          2.93830        2.13190        0.17620
H          0.72080       -1.08910       -0.22950
H          0.92210        0.47870       -1.10130
H          0.61660        0.46410        0.68430
H          2.94640       -2.25470        0.14170
H          5.44340       -1.61280        0.57420
H          5.45030        0.96990       -0.33210
H          5.14160        0.95510        1.47220
