12
5802	2
O          0.95200        0.02920       -0.33100
C          2.32010        0.07960       -0.03850
C          3.06560       -1.11580       -0.63170
N          3.92410       -0.78000       -1.52510
N          3.93460        0.56490       -1.70500
C          2.99710        1.14210       -0.85120
N          2.76170        2.40230       -0.78400
H          0.58080       -0.71570        0.20970
H          2.50490        0.21400        1.05010
H          2.90200       -2.14520       -0.34260
H          4.54410        1.05590       -2.37480
H          3.27520        3.06650       -1.38140
