11
5874	1
C          1.05780       -0.01820        0.01730
N          2.51300       -0.09150        0.01590
N          3.33220        0.94680        0.01070
N          4.58310        0.49710        0.01100
O          4.55040       -0.80780        0.01640
C          3.29580       -1.17790        0.01940
N          2.88000       -2.38940        0.02490
H          0.72770        1.04220        0.01350
H          0.65910       -0.51690        0.92560
H          0.65700       -0.52410       -0.88590
H          3.54950       -3.17250        0.02730
