12
5826	1
O          1.12430       -0.17190       -0.64480
N          2.40010       -0.14870       -0.23180
C          3.19740       -1.26900       -0.03170
C          4.44950       -0.87050        0.38370
C          4.51380        0.64250        0.47330
C          3.10390        0.95780        0.03980
O          2.64220        2.08400       -0.05810
H          0.58690       -0.24240        0.18560
H          2.87620       -2.29130       -0.18110
H          5.26210       -1.54780        0.60980
H          5.26300        1.06040       -0.23140
H          4.71000        0.98190        1.51190
