15
5827	1
C          1.00380        0.00260       -0.20190
N          2.42100       -0.00080        0.08340
C          3.19330       -1.11580        0.39990
N          4.42450       -0.81620        0.60400
C          4.67030        0.61680        0.44600
C          3.28930        1.09700        0.09900
C          2.94090        2.36350       -0.15430
H          0.59050       -1.02630       -0.13610
H          0.82940        0.39210       -1.22680
H          0.47590        0.64660        0.53230
H          2.80950       -2.12530        0.46880
H          5.38650        0.80570       -0.38140
H          5.02900        1.06310        1.39750
H          3.68700        3.15080       -0.11830
H          1.91550        2.62050       -0.39750
