14
5796	2
C          0.89270        0.05970       -0.11850
C          2.40400        0.01670        0.09570
C          3.02700       -1.20990       -0.53390
C          3.92590       -0.83460       -1.50750
N          3.97670        0.55400       -1.60040
C          3.12690        1.07500       -0.70380
O          2.97200        2.27790       -0.56100
H          0.41260       -0.78760        0.41560
H          0.64430       -0.01040       -1.19990
H          0.48130        1.00980        0.28330
H          2.64970        0.08470        1.17710
H          2.80800       -2.23540       -0.26720
H          4.51240       -1.51150       -2.11420
H          4.57090        1.09230       -2.24760
