13
5804	2
C          0.91190       -0.01980       -0.16530
C          2.42250       -0.03500        0.05380
C          3.08610       -1.23340       -0.60930
N          3.92100       -0.88280       -1.51570
N          3.97150        0.47030       -1.62030
C          3.13320        1.02430       -0.74350
O          2.98540        2.23010       -0.62130
H          0.44830       -0.88240        0.35850
H          0.66770       -0.08370       -1.24800
H          0.48090        0.91770        0.24550
H          2.66910        0.02570        1.13530
H          2.89330       -2.26840       -0.36070
H          4.57670        0.97720       -2.28250
