15
5821	1
C          1.13480        0.03330       -0.26300
N          2.55960       -0.00370       -0.02570
C          3.32360       -1.15150        0.17230
C          4.64830       -0.81220        0.36950
C          4.84180        0.69110        0.30720
C          3.41630        1.10510        0.04610
N          3.01730        2.31780       -0.09570
H          0.71240       -0.99410       -0.26830
H          0.93220        0.50850       -1.24570
H          0.63810        0.62020        0.53790
H          2.93190       -2.16050        0.17090
H          5.43680       -1.53170        0.54470
H          5.51200        0.97960       -0.52940
H          5.21470        1.09250        1.27270
H          3.68380        3.10130       -0.03490
