16
5927	1
C          1.02920       -0.05020       -0.10700
C          2.55350       -0.11880        0.00840
C          3.04260       -1.38390        0.77100
O          3.73840       -0.86980        1.84880
N          3.74050        0.43770        1.88280
C          3.10680        0.93730        0.90510
C          2.97480        2.41400        0.69210
H          0.66250       -0.89800       -0.72330
H          0.72550        0.89740       -0.59980
H          0.55430       -0.10220        0.89660
H          3.02870       -0.04020       -0.99370
H          3.72100       -1.99420        0.13770
H          2.20300       -2.00800        1.14670
H          3.49410        2.97340        1.49920
H          1.90280        2.70010        0.69360
H          3.42580        2.68880       -0.28390
