11
5965	2
N          0.90980       -0.02920        0.06820
C          2.32220       -0.05140        0.07020
C          3.17040        1.02950        0.07310
O          4.40540        0.56560        0.07410
N          4.42010       -0.74120        0.07200
C          3.13820       -1.14930        0.06960
O          2.74640       -2.43640        0.06700
H          0.40560        0.86910        0.06900
H          0.37590       -0.91020        0.06610
H          2.89800        2.07640        0.07440
H          3.39830       -3.15100        0.06670
