12
5969	3
C          1.05770        0.06680       -0.04560
C          2.55060        0.02780       -0.04380
N          3.35840        1.10010       -0.04100
H          3.07720        2.10560       -0.03960
N          4.61160        0.66510       -0.04020
N          4.64040       -0.66290       -0.04250
C          3.36020       -1.07760       -0.04480
O          2.96850       -2.36460       -0.04750
H          0.69930        1.11760       -0.04430
H          0.67070       -0.44800        0.85830
H          0.67290       -0.44500       -0.95220
H          3.62070       -3.07890       -0.04790
