17
5935	1
C          1.01750        0.00080       -0.20510
N          2.43920       -0.02960        0.05450
C          3.21080       -1.22620        0.25450
C          4.64230       -0.65640        0.48600
N          4.47780        0.78130        0.38410
C          3.26730        1.08830        0.14890
C          2.80070        2.50410       -0.00680
H          0.60500       -1.03030       -0.22840
H          0.82570        0.48380       -1.18610
H          0.50230        0.57300        0.59470
H          3.16850       -1.86420       -0.65450
H          2.84110       -1.77410        1.14800
H          5.34540       -1.01010       -0.29800
H          5.01930       -0.92010        1.49720
H          3.64970        3.21040        0.11190
H          2.03520        2.73060        0.76400
H          2.35830        2.64140       -1.01530
