9
5891	3
O          1.10920       -0.07370        0.39960
C          2.28140       -0.01030        0.06550
N          3.06720       -1.06880       -0.17530
N          4.32710       -0.64280       -0.52890
C          4.38830        0.64440       -0.52680
C          3.07950        1.17500       -0.14450
O          2.74440        2.34270       -0.03090
H          2.78690       -2.05810       -0.11030
H          5.27830        1.20780       -0.77260
