12
5976	1
F          0.94140       -0.08000        0.10190
C          2.29950       -0.09370        0.06060
C          3.05220       -1.16190       -0.09350
C          4.50950       -0.76270       -0.08670
O          4.45580        0.61650        0.08540
C          3.18140        1.03250        0.17400
C          2.82190        2.30600        0.34200
H          2.67450       -2.16940       -0.20700
H          4.99410       -1.01700       -1.05270
H          5.04700       -1.24090        0.75900
H          3.57830        3.08060        0.41570
H          1.77310        2.57860        0.40630
