10
5901	1
C          1.05980       -0.06870       -0.12690
C          2.38900       -0.08320       -0.01510
C          3.27580       -1.22370        0.12670
N          4.48970       -0.80330        0.20310
O          4.55840        0.51840        0.13030
C          3.31820        1.02100       -0.00310
O          3.05610        2.20940       -0.09570
H          0.50030       -0.99860       -0.11830
H          0.52820        0.87220       -0.22720
H          2.99670       -2.26830        0.16550
