14
5934	1
C          1.03850        0.03740       -0.04780
C          2.54080       -0.09020        0.19040
O          2.82390       -1.28720        0.90710
C          3.46000       -0.91860        2.12690
C          3.55790        0.55030        2.12240
C          3.04090        1.01340        1.03260
F          2.97720        2.33360        0.71700
H          0.68430       -0.81740       -0.66180
H          0.81410        0.98030       -0.59090
H          0.48880        0.03490        0.91830
H          3.08700       -0.09140       -0.77740
H          4.47760       -1.36040        2.17360
H          2.84690       -1.24960        2.99140
H          3.99430        1.15760        2.90460
