14
5942	1
C          0.85900       -0.01130        0.00440
C          2.35250       -0.04330        0.00900
C          3.20560        1.04440        0.01360
N          4.48530        0.61540        0.01680
H          5.33780        1.21790        0.02060
C          4.46250       -0.73240        0.01440
C          3.15310       -1.16310        0.00950
O          2.73040       -2.44140        0.00590
H          0.49230        1.03690        0.00510
H          0.47280       -0.52840        0.90740
H          0.47840       -0.52520       -0.90280
H          2.91370        2.08660        0.01450
H          5.34510       -1.35860        0.01600
H          3.36230       -3.17400        0.00660
