11
5943	1
O          0.96570        0.03340       -0.10610
C          2.31120        0.00230       -0.10000
C          3.15980        1.08890       -0.09510
N          4.43600        0.65300       -0.08970
H          5.29210        1.25040       -0.08520
C          4.40470       -0.69650       -0.09110
C          3.09410       -1.12600       -0.09750
F          2.66430       -2.41130       -0.10060
H          0.48800        0.87460       -0.10750
H          2.86970        2.13150       -0.09550
H          5.28380       -1.32740       -0.08770
