10
5960	2
O          1.01730        0.12680       -0.04820
C          2.36130        0.07330       -0.05320
N          3.16610        1.15240       -0.05920
N          4.41870        0.71750       -0.06290
H          5.25690        1.33950       -0.06780
C          4.42770       -0.63110       -0.05930
C          3.12340       -1.06880       -0.05310
F          2.68660       -2.35160       -0.04800
H          0.55690        0.97750       -0.04870
H          5.31970       -1.24350       -0.06110
