17
5923	1
C          1.07280        0.06910       -0.13010
C          2.58400       -0.03820        0.08400
C          2.98370       -1.33330        0.85950
N          3.65330       -0.80510        2.01820
N          3.67940        0.55150        2.03380
C          3.11000        1.03480        1.00650
C          3.01480        2.50820        0.75460
H          0.72410       -0.77140       -0.76660
H          0.82570        1.02190       -0.64390
H          0.53420        0.03360        0.84140
H          3.11780        0.02270       -0.88940
H          3.68240       -1.96110        0.26660
H          2.10420       -1.92880        1.18760
H          4.06470       -1.38070        2.76670
H          3.49530        3.07780        1.57840
H          1.94950        2.81060        0.68740
H          3.52620        2.75400       -0.19910
