9
5905	1
N          1.12270        0.05050       -0.18840
C          2.39730        0.03160       -0.04460
N          3.16890       -1.10540        0.21620
C          4.39350       -0.70590        0.28980
O          4.54320        0.63890        0.09880
C          3.30860        1.13100       -0.11360
O          3.04760        2.30440       -0.32350
H          0.57450       -0.81870       -0.11480
H          5.21920       -1.37680        0.48470
