14
5995	1
C          1.06170        0.14640       -0.02010
C          2.55370        0.03100       -0.02270
N          3.33250        1.04200        0.01090
N          4.63150        0.63890        0.00550
C          4.70750       -0.63400       -0.03020
C          3.33670       -1.26340       -0.05470
N          3.11900       -2.01970       -1.28640
H          0.75270        1.21280        0.01270
H          0.65200       -0.37520        0.86970
H          0.64880       -0.31830       -0.93910
H          5.64790       -1.16840       -0.04110
H          3.15230       -1.89540        0.84020
H          3.26790       -1.40680       -2.12190
H          2.13300       -2.36730       -1.30350
