13
6067	1
C          1.01390        0.03750       -0.12970
C          2.50530       -0.00680       -0.10880
N          3.29810        1.07880       -0.02160
C          4.54730        0.55600       -0.03020
N          4.51740       -0.79100       -0.12020
N          3.24150       -1.12580       -0.16790
N          2.76030       -2.44180       -0.27410
H          0.66360        1.08920       -0.07470
H          0.61830       -0.52230        0.74320
H          0.63770       -0.42530       -1.06580
H          5.45290        1.14470        0.02770
H          3.57130       -3.10060       -0.28280
H          2.17940       -2.64480        0.56950
