13
6053	1
C          1.02850       -0.00250       -0.05910
N          2.48520       -0.03950       -0.05880
N          3.26310        1.03170       -0.05960
N          4.54180        0.66870       -0.05920
C          4.58000       -0.68140       -0.05800
C          3.27960       -1.12040       -0.05780
N          2.83910       -2.46410       -0.05670
H          0.67120        1.04910       -0.06000
H          0.64050       -0.51260        0.84760
H          0.64070       -0.51420       -0.96490
H          5.48140       -1.27940       -0.05740
H          3.52470       -3.23290       -0.05600
H          1.83340       -2.68530       -0.05660
