12
6076	1
C          1.16620        0.04280       -0.11860
C          2.65510       -0.05090       -0.07360
N          3.49510        0.99510        0.03410
N          4.71880        0.47370        0.03720
N          4.63980       -0.84710       -0.06540
N          3.36560       -1.18370       -0.13320
N          2.87750       -2.49500       -0.25180
H          0.84510        1.10370       -0.05530
H          0.73700       -0.51910        0.73650
H          0.79370       -0.39380       -1.06880
H          3.68810       -3.15390       -0.26200
H          2.29980       -2.70100        0.59420
