12
6083	1
F          0.97600        0.21400       -0.03260
C          2.33170        0.12390       -0.02970
C          3.16790        1.16220       -0.02580
C          4.48650        0.70620       -0.02360
C          4.49620       -0.67690       -0.02620
C          3.11280       -1.10280       -0.03020
C          2.65470       -2.35580       -0.03370
H          2.86140        2.19980       -0.02460
H          5.37110        1.32900       -0.02040
H          5.37800       -1.30430       -0.02530
H          3.34670       -3.19210       -0.03370
H          1.58680       -2.54950       -0.03650
