9
6087	1
F          0.81690        0.14280        0.06460
C          2.17220        0.05570        0.06840
C          3.02590        1.07390        0.07220
N          4.36450        0.59810        0.07540
C          4.35290       -0.68450        0.07360
C          2.97890       -1.14660        0.06910
O          2.58690       -2.30190        0.06640
H          2.75150        2.12030        0.07290
H          5.24610       -1.29480        0.07530
