13
6073	1
C          1.07080        0.14260       -0.05390
C          2.56370        0.08620       -0.05640
N          3.37320        1.16050       -0.06380
N          4.60990        0.67660       -0.06340
N          4.56800       -0.64910       -0.05610
N          3.30450       -1.03280       -0.05170
C          2.85020       -2.41730       -0.04330
H          0.72690        1.19820       -0.05900
H          0.68050       -0.36040        0.85510
H          0.67710       -0.37030       -0.95590
H          3.72100       -3.10660       -0.04110
H          2.23640       -2.61540       -0.94690
H          2.23990       -2.60550        0.86480
