9
6063	1
O          1.00430        0.26550        0.41610
N          2.34810        0.17780        0.27540
N          3.17600        1.20700        0.31290
N          4.42470        0.78460        0.14820
C          4.38100       -0.55950        0.00310
C          3.06210       -0.93640        0.08560
F          2.55320       -2.18930       -0.00410
H          0.66030        0.40950       -0.50250
H          5.24100       -1.19760       -0.14820
