11
6079	1
C          1.10010       -0.09440        0.01760
C          2.59130       -0.08590       -0.03460
N          3.36580        1.00890        0.07670
N          4.61840        0.57340       -0.02500
N          4.61910       -0.74310       -0.19320
N          3.36890       -1.16180       -0.19940
O          2.98010       -2.44990       -0.35380
H          0.71550        0.93700        0.16250
H          0.76150       -0.72980        0.86220
H          0.69720       -0.50160       -0.93290
H          2.95250       -2.81980        0.56550
