9
6096	1
F          0.83720        0.11490       -0.06910
C          2.19410        0.05710       -0.06890
C          3.03070        1.09180       -0.06700
C          4.34300        0.59230       -0.06750
N          4.35910       -0.69300       -0.06950
C          3.02670       -1.11540       -0.07050
O          2.66410       -2.28030       -0.07250
H          2.73910        2.13370       -0.06550
H          5.24250        1.19320       -0.06630
