10
6166	1
F          0.96010        0.10500       -0.03780
C          2.31510        0.09310       -0.02970
C          3.14440        1.19400       -0.02430
C          4.43810        0.70250       -0.01670
N          4.41560       -0.64550       -0.01730
H          5.24490       -1.27960       -0.01250
C          3.12410       -1.01840       -0.02520
F          2.70420       -2.30700       -0.02820
H          2.84470        2.23340       -0.02570
H          5.34300        1.29570       -0.01100
