8
6132	1
F          0.95780        0.01650       -0.05420
C          2.31180       -0.03240       -0.05990
N          3.12080        1.03990       -0.06570
N          4.36240        0.57410       -0.07000
H          5.21550        1.17530       -0.07510
N          4.38350       -0.75190       -0.06720
C          3.10150       -1.15310       -0.06080
F          2.69220       -2.44460       -0.05630
