11
6165	1
O          1.02570       -0.05480        0.01790
C          2.37160       -0.05680        0.02410
C          3.19580        1.04870        0.02870
C          4.49020        0.55680        0.03430
N          4.46880       -0.79290        0.03310
H          5.29910       -1.42580        0.03640
C          3.17760       -1.16850        0.02690
F          2.75910       -2.45780        0.02400
H          0.53010        0.77610        0.01630
H          2.89480        2.08800        0.02810
H          5.39480        1.15030        0.03890
