19
6136	1
C          1.00170        0.19440        0.01670
C          2.50570        0.12310       -0.01750
C          3.26460       -0.98000       -0.10280
C          2.79170       -2.40760       -0.18440
C          4.71720       -0.64830       -0.00350
C          4.69930        0.84130       -0.34010
C          3.34450        1.34710        0.15070
H          0.49790       -0.78250       -0.08400
H          0.65240        0.84180       -0.81430
H          0.68160        0.64620        0.97860
H          1.69450       -2.52180       -0.21850
H          3.16580       -2.96500        0.69940
H          3.20840       -2.87350       -1.10150
H          5.36650       -1.18980       -0.72500
H          5.03840       -0.84310        1.04240
H          4.64500        0.89000       -1.45400
H          5.58880        1.42920       -0.03090
H          3.02280        2.21710       -0.46160
H          3.35420        1.60510        1.23170
