10
6108	1
F          0.90350       -0.04490       -0.02550
C          2.25780       -0.08870       -0.01750
C          3.11380        0.99140       -0.01190
N          4.38860        0.55250       -0.00450
H          5.24650        1.14740        0.00090
C          4.35280       -0.79530       -0.00520
C          3.04120       -1.21850       -0.01320
F          2.60760       -2.50220       -0.01640
H          2.82710        2.03480       -0.01320
H          5.22950       -1.42960       -0.00030
