14
6172	2
C          1.02410        0.11690       -0.06650
C          2.51850        0.07800       -0.06270
N          3.31180        1.16080       -0.05740
H          3.01730        2.16260       -0.05520
C          4.57620        0.68830       -0.05550
N          4.61450       -0.66380       -0.05950
C          3.32150       -1.03850       -0.06400
N          2.89070       -2.38440       -0.06920
H          0.66470        1.16730       -0.06430
H          0.63530       -0.39820        0.83650
H          0.64000       -0.39280       -0.97460
H          5.45680        1.31680       -0.05130
H          3.58260       -3.14740       -0.06970
H          1.88640       -2.61280       -0.07250
