12
6164	1
N          0.87920        0.08530        0.00950
C          2.29180        0.07790        0.01490
C          3.11220        1.18530        0.01840
C          4.40830        0.69730        0.02310
N          4.39170       -0.65250        0.02250
H          5.22430       -1.28240        0.02540
C          3.10200       -1.03280        0.01750
F          2.68920       -2.32410        0.01540
H          0.36510        0.97810        0.00800
H          0.35450       -0.80120        0.00720
H          2.80820        2.22360        0.01770
H          5.31090        1.29400        0.02680
