10
6169	3
O          0.88970        0.05940        0.02350
C          2.23450        0.01020        0.02900
N          3.04000        1.08510        0.03320
H          2.74460        2.08650        0.03270
N          4.30110        0.67580        0.03810
C          4.30690       -0.67620        0.03720
C          3.00260       -1.12410        0.03140
F          2.57460       -2.40990        0.02870
H          0.42540        0.90790        0.02220
H          5.20010       -1.28620        0.04040
