19
6260	1
C          0.86540       -0.06770       -0.00990
C          2.38890       -0.02530        0.10240
C          3.07240        1.05560        0.96550
N          2.27960        1.46430        2.13470
C          4.10710       -0.01630        1.35270
C          3.07170       -1.08630        0.97310
N          3.60040       -2.25120        0.26550
H          0.50670        0.83440       -0.54790
H          0.38600       -0.10850        0.98980
H          0.56340       -0.97090       -0.57990
H          2.87050       -0.00430       -0.90460
H          3.45860        1.95450        0.43740
H          1.89930        0.65840        2.68010
H          1.48310        2.06110        1.81450
H          4.53120       -0.01810        2.37910
H          4.91280        0.00280        0.58130
H          2.45060       -1.35830        1.85640
H          4.17670       -1.95340       -0.55480
H          2.79400       -2.81190       -0.09190
