19
6258	1
C          0.95790       -0.11650       -0.05320
C          2.48310       -0.10350       -0.08850
C          3.20370        0.98560        0.71290
C          4.29020       -0.05700        1.04060
O          5.26550       -0.07000        0.02780
C          3.22150       -1.13090        0.77090
C          3.63750       -2.44490        0.11190
H          0.56600        0.77150       -0.59160
H          0.58700       -0.09610        0.99360
H          0.58310       -1.03550       -0.55020
H          2.88760       -0.11410       -1.12870
H          2.63330        1.19050        1.65030
H          3.48940        1.92900        0.20070
H          4.76360       -0.05140        2.04730
H          5.76520        0.78300        0.11430
H          2.65470       -1.30400        1.71770
H          4.19280       -2.26130       -0.83180
H          2.73260       -3.04470       -0.11990
H          4.28410       -3.02070        0.80640
