16
6264	1
C          0.92840       -0.08300       -0.22050
C          2.44540       -0.02820       -0.04950
C          3.05140        0.99700        0.92100
O          2.20460        1.18630        2.02750
C          4.10990       -0.07120        1.24500
C          3.10990       -1.13070        0.77380
F          3.64730       -2.17930        0.04860
H          0.57630        0.84640       -0.71480
H          0.41860       -0.18710        0.76030
H          0.65880       -0.95330       -0.85460
H          2.97070        0.06200       -1.03120
H          3.37460        1.97270        0.49570
H          2.75080        1.64300        2.71870
H          4.51960       -0.13920        2.27520
H          4.92700        0.01040        0.48880
H          2.46130       -1.44640        1.62390
