9
6253	1
N          1.21630        0.04240        0.04740
C          2.62630       -0.02510        0.04540
N          3.44460        1.03910        0.04000
N          4.68190        0.55690        0.03990
O          4.64660       -0.74830        0.04500
C          3.40090       -1.15270        0.04850
F          2.99010       -2.44400        0.05410
H          0.74250        0.95690        0.04460
H          0.65440       -0.82100        0.05160
