13
6225	1
C          1.01260        0.12900        0.06330
C          2.50430        0.07680        0.05950
O          3.29100        1.12430        0.05460
C          4.53570        0.68900        0.05250
N          4.59260       -0.66190        0.05600
C          3.30340       -1.04040        0.06040
N          2.87350       -2.38650        0.06510
H          0.67010        1.18490        0.06140
H          0.62320       -0.37640        0.97150
H          0.61840       -0.38120       -0.84020
H          5.40590        1.33150        0.04860
H          3.56570       -3.14920        0.06530
H          1.86910       -2.61500        0.06830
