18
6261	1
C          1.01320       -0.12370       -0.07920
C          2.53660       -0.08290        0.03330
C          3.22170        0.99690        0.89820
N          2.43000        1.40230        2.06960
C          4.25900       -0.07500        1.28210
C          3.22120       -1.14390        0.90180
O          3.70770       -2.28140        0.23460
H          0.65620        0.77860       -0.61830
H          0.53350       -0.16250        0.92040
H          0.71010       -1.02690       -0.64880
H          3.01780       -0.06150       -0.97370
H          3.60520        1.89800        0.37170
H          2.05530        0.59520        2.61720
H          1.62940        1.99470        1.75180
H          4.68570       -0.07880        2.30770
H          5.06290       -0.05450        0.50900
H          2.59910       -1.40750        1.78610
H          4.27050       -1.97810       -0.52400
