11
6236	1
C          0.97620       -0.01630       -0.08860
C          2.46830       -0.03180       -0.09240
N          3.24430        1.06740       -0.09670
C          4.50650        0.58320       -0.09910
O          4.52100       -0.73360       -0.09640
C          3.27730       -1.13970       -0.09230
F          2.88350       -2.43660       -0.08860
H          0.60310        1.02940       -0.08970
H          0.60020       -0.53330        0.81880
H          0.59540       -0.53700       -0.99190
H          5.39310        1.20290       -0.10270
