16
6281	1
N          0.83150        0.05120        0.01190
C          2.28700        0.06200       -0.11780
C          3.03040        1.09380        0.73550
C          4.11700        0.02900        0.95500
O          5.05120        0.06380       -0.09630
C          3.03310       -1.02510        0.66070
O          3.43570       -2.11770       -0.11790
H          0.45770        0.92940       -0.41420
H          0.55350        0.03480        1.01990
H          2.63770        0.11040       -1.17630
H          2.49350        1.23580        1.70380
H          3.30610        2.06860        0.28030
H          4.63050       -0.02740        1.93980
H          5.53360        0.92690       -0.01140
H          2.48150       -1.30320        1.59060
H          4.11910       -2.59450        0.42020
