11
6227	1
C          0.96670        0.01810       -0.09730
C          2.45780       -0.01160       -0.10110
O          3.23190        1.04460       -0.10540
C          4.47950        0.62210       -0.10770
N          4.54820       -0.72780       -0.10490
C          3.26330       -1.12210       -0.10070
F          2.85860       -2.41560       -0.09670
H          0.60830        1.06870       -0.09850
H          0.58520       -0.49440        0.81030
H          0.58060       -0.49810       -1.00090
H          5.34370        1.27280       -0.11150
