9
6192	1
O          0.98430        0.12740        0.01650
C          2.32910        0.11080        0.01690
N          3.11420        1.20390        0.01690
N          4.37040        0.77090        0.01740
N          4.40130       -0.55540        0.01780
H          5.27030       -1.13350        0.01820
C          3.13460       -0.99400        0.01750
F          2.75650       -2.29550        0.01780
H          0.50120        0.96530        0.01610
