11
6217	2
N          1.03270        0.04710       -0.05650
C          2.44510        0.02500       -0.05470
C          3.29340        1.10580       -0.05180
N          4.56300        0.64230       -0.05080
O          4.50840       -0.66310       -0.05290
C          3.26180       -1.07320       -0.05530
O          2.87430       -2.36110       -0.05790
H          0.52850        0.94530       -0.05580
H          0.49890       -0.83400       -0.05870
H          3.01860        2.15210       -0.05050
H          3.53070       -3.07130       -0.05810
