12
6205	1
C          1.03500        0.07970       -0.02760
C          2.52840        0.08170       -0.02370
C          3.35610        1.18260       -0.02050
C          4.64580        0.68470       -0.01750
O          4.60740       -0.63140       -0.01880
C          3.35330       -1.01990       -0.02240
F          2.95490       -2.31550       -0.02460
H          0.64460        1.11930       -0.02770
H          0.66110       -0.44530        0.87610
H          0.66580       -0.44370       -0.93410
H          3.06100        2.22360       -0.02040
H          5.55520        1.27040       -0.01460
