11
6200	1
N          1.03860        0.06170        0.07150
C          2.44960        0.01140        0.06730
O          3.22450        1.07050        0.06230
C          4.48080        0.67310        0.05940
C          4.52660       -0.71100        0.06260
C          3.21650       -1.12870        0.06760
F          2.77430       -2.40990        0.07210
H          0.55520        0.97100        0.07080
H          0.48590       -0.80760        0.07530
H          5.33330        1.33900        0.05510
H          5.41060       -1.33450        0.06130
