16
6273	1
N          1.07270       -0.12330       -0.14190
C          2.52700       -0.07070        0.00690
C          3.09690        0.94130        1.02120
O          2.20970        1.12090        2.09740
C          4.14310       -0.13250        1.37610
C          3.15300       -1.18220        0.85540
O          3.70240       -2.27210        0.15900
H          0.74980        0.77820       -0.56100
H          0.60340       -0.24610        0.78410
H          3.05920        0.03760       -0.96800
H          3.43950        1.92160        0.62260
H          2.73290        1.56010        2.81730
H          4.50960       -0.21250        2.42170
H          4.99100       -0.03100        0.65760
H          2.47220       -1.49610        1.68050
H          4.30310       -1.91590       -0.54570
