11
6230	1
N          0.88310        0.05300       -0.05970
C          2.29450        0.01210       -0.06360
O          3.07210        1.06380       -0.06840
C          4.31800        0.62890       -0.07090
N          4.37590       -0.72430       -0.06770
C          3.08590       -1.10360       -0.06310
O          2.66580       -2.38180       -0.05880
H          0.39380        0.95910       -0.06050
H          0.33620       -0.82000       -0.05590
H          5.18780        1.27200       -0.07500
H          3.30170       -3.11060       -0.05880
