10
6191	1
N          1.00190       -0.03140        0.06900
C          2.41340       -0.05070        0.06920
N          3.19470        1.04460        0.06900
N          4.45240        0.61590        0.06930
N          4.48840       -0.71040        0.06970
H          5.35970       -1.28510        0.07010
C          3.22350       -1.15400        0.06970
F          2.85150       -2.45740        0.07010
H          0.49720        0.86640        0.06860
H          0.46960       -0.91340        0.06920
