14
6284	1
O          1.05050       -0.09140       -0.07860
C          2.44050        0.06130       -0.01320
C          2.93760        1.10230        0.99520
C          4.05600        0.12450        1.35390
F          5.11890        0.31380        0.47930
C          3.14560       -0.99620        0.84330
O          3.81020       -2.00300        0.13240
H          0.69950        0.77420       -0.41230
H          2.94290        0.17440       -1.00350
H          2.22700        1.14770        1.85530
H          3.20620        2.11650        0.63090
H          4.41350        0.08550        2.40460
H          2.50090       -1.36650        1.67620
H          3.10240       -2.50610       -0.34670
