13
6240	1
C          1.06320        0.07770       -0.08580
C          2.55360       -0.00980       -0.08790
N          3.38660        1.04540       -0.09530
N          4.62000        0.55640       -0.09470
O          4.57670       -0.74660       -0.08740
C          3.32870       -1.14480       -0.08300
C          2.87540       -2.56640       -0.07430
H          0.74150        1.14030       -0.09110
H          0.66190       -0.41720        0.82310
H          0.65870       -0.42730       -0.98760
H          3.75410       -3.24460       -0.07210
H          2.26310       -2.76860       -0.97770
H          2.26630       -2.75850        0.83340
