10
6207	1
O          0.97730       -0.04640       -0.08750
C          2.32310       -0.04260       -0.08230
C          3.14420        1.06020       -0.07760
C          4.43380        0.55820       -0.07320
O          4.39260       -0.76010       -0.07520
C          3.13730       -1.14670       -0.08060
F          2.73230       -2.43990       -0.08390
H          0.47810        0.78230       -0.08830
H          2.84700        2.10050       -0.07730
H          5.34450        1.14190       -0.06890
