20
6308	1
C          1.03730        0.03110        0.13390
C          2.55480        0.04010       -0.03020
C          3.28430        1.18120        0.67520
C          4.19530        0.07380        1.20060
C          5.56020        0.06540        0.48010
N          3.23490       -0.97290        0.78670
C          3.74260       -2.12300        0.02090
H          0.59930        0.90400       -0.39420
H          0.75590        0.07550        1.20790
H          0.62340       -0.90070       -0.30580
H          2.87120       -0.01350       -1.09980
H          2.67330        1.55340        1.52810
H          3.71790        1.97500        0.02840
H          4.33170        0.10490        2.30410
H          5.44800        0.08920       -0.62470
H          6.14220       -0.83220        0.77580
H          6.13640        0.96620        0.78060
H          4.41940       -2.72570        0.66180
H          4.27930       -1.82780       -0.90540
H          2.88780       -2.76700       -0.27360
