14
6368	1
F          1.79690        0.29430       -0.99040
C          2.69400        0.03740        0.03230
C          2.89350       -1.41330        0.43550
C          4.05330       -1.86240       -0.41360
O          4.92430       -0.76900       -0.40540
C          4.05130        0.31270       -0.63450
C          3.66420        1.11500        0.56400
H          1.99090       -2.05130        0.32970
H          3.21590       -1.42700        1.50050
H          3.73260       -2.07240       -1.46200
H          4.52490       -2.77590        0.00620
H          4.10020        0.88590       -1.58620
H          3.15720        2.09090        0.41330
H          4.02290        0.79830        1.56620
