15
6356	1
F          1.73470        0.31660       -1.02460
C          2.68890        0.01230       -0.06370
C          2.85770       -1.44840        0.35050
N          4.00090       -1.97510       -0.37540
C          4.92320       -0.85230       -0.35440
C          4.09700        0.40370       -0.62660
C          3.48320        1.13000        0.55200
H          1.94020       -2.04230        0.15190
H          3.06940       -1.49530        1.44270
H          3.70750       -2.13160       -1.36950
H          5.72540       -0.97720       -1.11320
H          5.40700       -0.79110        0.64690
H          3.87550        0.61020       -1.69740
H          3.13850        2.15040        0.28300
H          3.96180        0.90070        1.52760
