15
6322	1
C          1.06780        0.11770        0.15620
C          2.52900       -0.21900       -0.13660
O          3.39260        0.72900        0.38880
C          3.94540       -0.14050        1.19510
O          4.84210        0.04570        2.00200
C          3.15420       -1.32150        0.83580
C          3.98110       -2.40930        0.15630
H          0.76950        1.01630       -0.42330
H          0.91940        0.32200        1.23820
H          0.42360       -0.73530       -0.14280
H          2.73650       -0.38690       -1.21810
H          2.52670       -1.64980        1.69250
H          4.62710       -1.98750       -0.64410
H          3.29840       -3.15920       -0.29430
H          4.62310       -2.91480        0.90800
