14
6360	1
F          1.84890        0.24810       -1.00190
C          2.84690       -0.04840       -0.08380
C          3.03960       -1.49650        0.34300
O          4.20540       -1.99430       -0.25300
C          5.06140       -0.89040       -0.32130
C          4.22870        0.33380       -0.66780
C          3.62230        1.09770        0.49480
H          2.16570       -2.09710        0.01440
H          3.12650       -1.56500        1.45010
H          5.82110       -1.04900       -1.11490
H          5.59360       -0.76910        0.64960
H          3.98450        0.45350       -1.74670
H          3.28070        2.10760        0.18610
H          4.12140        0.90870        1.46910
