16
6376	1
C          1.43400        0.30390       -0.12350
C          2.84590       -0.21180        0.11680
C          3.16840       -1.60760        0.60390
N          4.46200       -1.98100        0.01220
C          5.10560       -0.74040       -0.44640
C          4.01740        0.30320       -0.59870
O          3.66970        0.73870        0.70740
H          0.94710       -0.30920       -0.91000
H          1.44840        1.36480       -0.45390
H          0.84560        0.22480        0.81420
H          2.38180       -2.32850        0.28670
H          3.22950       -1.61290        1.71340
H          4.24570       -2.53690       -0.85000
H          5.62350       -0.90830       -1.41660
H          5.85850       -0.40090        0.29830
H          4.15840        1.25230       -1.15620
