16
6380	1
N          1.49240        0.44220       -0.89830
C          2.61620       -0.08690       -0.13510
C          2.67850       -1.57820        0.22880
C          4.13240       -1.84810        0.19800
C          4.85780       -0.74530       -0.16700
C          4.01790        0.46160       -0.41560
C          3.20510        0.94350        0.80060
H          0.61370        0.23960       -0.36990
H          1.44740       -0.06420       -1.81150
H          2.19360       -2.20240       -0.55110
H          2.22440       -1.77160        1.22330
H          4.57770       -2.81140        0.40870
H          5.93460       -0.75570       -0.26840
H          3.96860        0.87340       -1.44620
H          2.99350        2.01900        0.62290
H          3.70790        0.60470        1.73270
