15
6367	1
O          1.81090        0.09040       -0.94660
C          2.82500       -0.09850       -0.00250
C          3.16000       -1.52800        0.38320
C          4.32720       -1.87080       -0.50400
O          5.09410       -0.70170       -0.52500
C          4.11990        0.29390       -0.73650
C          3.70010        1.08750        0.45660
H          1.03550        0.41950       -0.42460
H          2.31440       -2.24400        0.30860
H          3.52010       -1.50900        1.43590
H          3.99230       -2.11280       -1.54100
H          4.89450       -2.73610       -0.10080
H          4.03970        0.79680       -1.72570
H          3.10720        2.01270        0.29870
H          4.14070        0.83640        1.44460
