17
6362	1
N          1.66720        0.36490       -0.72000
C          2.81850        0.07170        0.12800
C          3.12140       -1.38580        0.48480
C          4.22070       -1.78100       -0.46980
N          5.05770       -0.59380       -0.55340
C          4.06230        0.46450       -0.70270
C          3.75170        1.18330        0.58640
H          0.80440        0.11340       -0.18690
H          1.69680       -0.23600       -1.57660
H          2.24350       -2.06550        0.45920
H          3.54190       -1.39260        1.51490
H          3.77360       -1.98870       -1.47190
H          4.78120       -2.67910       -0.13350
H          5.63610       -0.65780       -1.42270
H          4.30490        1.30790       -1.38530
H          3.18680        2.13910        0.53890
H          4.33600        0.89020        1.48490
