15
6337	1
C          0.99990       -0.03010        0.34490
C          2.44100       -0.13250       -0.14720
O          3.28150        0.92490        0.35670
C          4.08510        0.00110        1.11780
C          5.52540       -0.08050        0.61950
C          3.24410       -1.04160        0.61300
O          3.22160       -2.25200        0.77020
H          0.49990        0.82410       -0.15750
H          0.96440        0.13220        1.44410
H          0.45080       -0.96300        0.09730
H          2.54120       -0.29030       -1.24300
H          3.98660        0.13320        2.21720
H          5.55840       -0.20640       -0.48450
H          6.04130       -0.93930        1.09860
H          6.06080        0.85420        0.88720
