17
6375	1
C          1.46160        0.36510       -0.20600
C          2.86440       -0.13730        0.10180
C          3.18300       -1.54040        0.60520
C          4.33480       -1.95220       -0.29970
C          5.14280       -0.67520       -0.50020
C          4.05260        0.38400       -0.63250
O          3.69580        0.81750        0.67450
H          1.01480       -0.25890       -1.00750
H          1.48330        1.42340       -0.54360
H          0.83350        0.28960        0.70590
H          2.33870       -2.25770        0.52160
H          3.51560       -1.47340        1.66490
H          3.88950       -2.20760       -1.28980
H          4.91720       -2.83010        0.05090
H          5.77950       -0.76310       -1.40590
H          5.78210       -0.44910        0.38270
H          4.22350        1.34600       -1.15860
