14
6386	1
C          1.37860        0.02190        0.54020
C          2.64630       -0.13150       -0.29870
C          3.36810        1.06980       -0.85710
C          3.96650        0.34380        0.36250
C          4.80300       -0.86150        0.08320
N          4.17030       -1.74560       -0.56400
O          2.94600       -1.37310       -0.82220
H          1.30750        1.03890        0.98170
H          1.37910       -0.72830        1.35850
H          0.49170       -0.14840       -0.10450
H          3.02460        2.07670       -0.54000
H          3.99770        0.91420       -1.75960
H          3.72900        0.59890        1.41780
H          5.83210       -0.98630        0.39060
