11
6335	1
F          1.00380       -0.16940        0.61440
C          2.26160        0.00570        0.06530
C          3.12470        1.08090        0.79150
C          4.08040       -0.00620        1.36870
F          5.34520        0.00310        0.80800
C          3.21060       -0.92680        0.65320
O          3.26270       -2.14360        0.56940
H          2.30940       -0.00410       -1.04440
H          2.55660        1.59790        1.59640
H          3.64200        1.74970        0.06820
H          4.04010       -0.17170        2.46630
