19
6297	1
C          0.98270       -0.04860        0.04300
C          2.50610       -0.11980       -0.09230
N          3.24750        0.96750        0.56930
C          4.15840       -0.05790        1.10350
C          5.48670       -0.02200        0.33140
C          3.19280       -1.19070        0.74470
N          3.72630       -2.34130        0.01190
H          0.60400        0.84540       -0.49710
H          0.67970        0.01740        1.11060
H          0.52930       -0.95870       -0.40390
H          2.82620       -0.15510       -1.16030
H          2.68360        1.32110        1.37970
H          4.34390        0.02360        2.19960
H          5.32600       -0.04420       -0.76770
H          6.11760       -0.88650        0.62830
H          6.02990        0.91450        0.57920
H          2.59380       -1.45860        1.64450
H          4.19270       -2.04810       -0.87570
H          2.92320       -2.95800       -0.24760
