15
6371	1
C          1.37110       -0.26880       -0.39440
C          2.81680        0.04960       -0.01480
C          3.62060       -1.02760        0.66070
C          3.95130       -0.55470       -0.78080
O          4.90360        0.47050       -0.85980
C          4.20880        1.65500       -0.54990
O          3.14800        1.35970        0.31900
H          1.25140       -1.33730       -0.67500
H          1.06800        0.36330       -1.25490
H          0.70760       -0.04810        0.46730
H          3.31390       -2.08950        0.55650
H          4.48610       -0.74780        1.29880
H          3.49360       -0.87330       -1.74290
H          3.82910        2.13730       -1.47830
H          4.90610        2.34400       -0.02980
