16
6435	2
O          0.95650       -0.08340        0.48510
C          2.08300       -0.54320        0.38690
N          2.98620        0.03980       -0.43620
C          4.32320       -0.50090       -0.56380
C          5.31620        0.35250       -1.35480
C          6.37010       -0.06590       -0.32600
C          5.22680       -0.32910        0.65760
H          2.35320       -1.42240        0.96490
H          2.71610        0.87190       -0.98330
H          4.34650       -1.55600       -0.92700
H          5.09250        1.43420       -1.19470
H          5.49090        0.11760       -2.42600
H          7.16490        0.65740       -0.04570
H          6.80000       -1.04720       -0.63900
H          4.97990        0.63230        1.16800
H          5.32150       -1.17010        1.37670
