16
6441	1
O          2.90030        2.73810        0.64520
C          2.27880        1.82540        1.16770
C          2.94220        0.51730        1.50550
C          4.42670        0.47650        1.11270
C          5.40230        1.30380        1.92850
N          6.32230        0.16910        2.06200
C          5.23980       -0.70700        1.60020
H          1.22600        1.95880        1.39270
H          2.41180       -0.29330        0.96270
H          2.83360        0.33930        2.59700
H          4.63330        0.62840        0.02880
H          4.99070        1.57060        2.93170
H          5.83360        2.16920        1.38100
H          6.53030       -0.01290        3.07250
H          4.76820       -1.20950        2.47910
H          5.54430       -1.41310        0.79820
