14
6451	1
N          3.95040       -1.79710        1.77050
C          3.82690       -0.95750        0.98360
C          3.67000        0.10650       -0.01320
C          4.34100        1.39450        0.47420
C          4.05040        2.63560       -0.33520
O          3.57240        3.32460        0.79800
C          3.63760        2.15130        1.57660
H          2.58670        0.26760       -0.20200
H          4.14970       -0.21880       -0.96000
H          5.43260        1.32580        0.68420
H          3.21260        2.51390       -1.05900
H          4.96780        3.10120       -0.75700
H          2.60130        1.79450        1.77440
H          4.26940        2.27980        2.48240
