18
6479	1
C          0.95390       -1.07140       -1.56120
C          2.45140       -1.14030       -1.60720
C          3.20410       -0.76010       -0.56540
C          4.70400       -0.84370       -0.63660
C          5.40760        0.15510       -1.53390
N          6.36300        0.50250       -0.47640
C          5.49030       -0.18620        0.48070
H          0.59360       -0.40640       -2.37340
H          0.58370       -0.67850       -0.58990
H          0.53670       -2.08830       -1.71450
H          2.92730       -1.50970       -2.51160
H          2.73370       -0.39290        0.34290
H          5.11340       -1.86280       -0.81950
H          4.76610        1.04030       -1.76340
H          5.88080       -0.29690       -2.43190
H          6.34740        1.53530       -0.30030
H          4.88600        0.56710        1.04170
H          6.02900       -0.90220        1.13800
