16
6472	1
C          1.30480        0.72500       -0.98000
C          2.37450        0.43360       -0.50640
C          3.67760        0.08180        0.06770
C          4.30040       -1.09530       -0.69730
C          5.59040       -1.64830       -0.11950
C          4.93120       -2.99050       -0.38420
N          3.60630       -2.38340       -0.56090
H          0.36670        0.98180       -1.39700
H          3.54370       -0.16990        1.14150
H          4.34860        0.96300       -0.00770
H          4.42750       -0.87640       -1.78500
H          5.60910       -1.49050        0.98220
H          6.54140       -1.42000       -0.64580
H          5.01080       -3.73310        0.44090
H          5.25650       -3.40380       -1.36740
H          3.13500       -2.41810        0.37530
