15
6448	1
C          1.21350        1.30840       -0.37530
N          2.49090        1.39900       -0.30640
O          3.25330        0.72720       -1.14440
C          4.62390        0.79410       -1.04340
C          5.36350        0.14070       -2.19240
N          6.16750        1.34330       -2.42700
C          5.24490        2.07840       -1.55770
H          0.59510        1.86390        0.32090
H          0.74310        0.67620       -1.12320
H          5.05500        0.48420       -0.06570
H          4.69640       -0.04310       -3.06920
H          5.96790       -0.74320       -1.89540
H          6.06200        1.66200       -3.41840
H          4.52980        2.66870       -2.18040
H          5.75830        2.67540       -0.77410
