17
6469	1
C          4.58610       -2.37910       -0.74310
C          4.09780       -1.32590       -0.41810
C          3.50360       -0.04480       -0.02200
C          4.06850        1.09320       -0.87480
C          3.68530        2.52100       -0.48150
C          5.09580        2.93640       -0.90730
C          5.53330        1.48910       -0.66940
H          5.01450       -3.30370       -1.02850
H          3.71240        0.13290        1.05440
H          2.40430       -0.09990       -0.16630
H          3.87410        0.95640       -1.96650
H          3.62370        2.59760        0.63020
H          2.81350        2.99790       -0.97730
H          5.60700        3.75130       -0.35230
H          5.09100        3.12810       -2.00670
H          5.80010        1.38060        0.40880
H          6.30590        1.04720       -1.33350
