18
6411	1
C          1.02040       -0.05400        0.08070
N          2.47300       -0.22770        0.09280
C          3.13370        0.95840        0.64660
C          4.65220        0.74900        0.66790
C          5.45520        1.75830        1.45180
O          6.04380        0.74920        2.24150
C          5.18410       -0.22400        1.69210
H          0.54540       -0.95680       -0.35760
H          0.73290        0.82870       -0.53180
H          0.63740        0.06870        1.11650
H          2.79440       -0.36820       -0.89390
H          2.76560        1.14790        1.68030
H          2.90890        1.85060        0.02020
H          5.13000        0.56820       -0.32130
H          4.83710        2.41070        2.10990
H          6.20050        2.29800        0.82750
H          4.43600       -0.51620        2.46350
H          5.73830       -1.07150        1.23350
