21
6391	1
C          0.98180       -2.28290        0.25710
C          2.50430       -2.26080        0.35510
C          2.99050       -1.03240        1.13170
C          4.52070       -1.00330        1.21480
C          5.15550        0.06980        2.10110
C          6.22520       -0.96520        2.45850
C          5.21670       -2.05390        2.08400
H          0.65820       -3.18120       -0.30970
H          0.61570       -1.37740       -0.27210
H          0.53030       -2.32070        1.27150
H          2.93020       -2.24540       -0.67190
H          2.84320       -3.18720        0.86780
H          2.55850       -1.04480        2.15660
H          2.64830       -0.10930        0.61540
H          5.00890       -0.97490        0.21060
H          4.51870        0.23350        3.00280
H          5.47130        1.02900        1.63890
H          6.65730       -0.96110        3.48160
H          7.02060       -0.93610        1.67620
H          4.58900       -2.26870        2.98130
H          5.58690       -2.98510        1.60530
