15
6471	1
C          1.03030       -0.43940       -0.00890
C          2.22110       -0.25410       -0.04080
C          3.66960       -0.02810       -0.07940
C          4.22730       -0.38900       -1.45990
C          5.73210       -0.43520       -1.57290
O          5.70580       -1.76010       -2.05430
C          4.32440       -1.85980       -1.79130
H         -0.01510       -0.60160        0.01870
H          4.15170       -0.63520        0.71680
H          3.86810        1.04490        0.12460
H          3.80090        0.17570       -2.31990
H          6.25660       -0.42320       -0.59040
H          6.13140        0.28120       -2.32380
H          4.17530       -2.52770       -0.91250
H          3.73950       -2.13790       -2.69490
