19
6400	1
N          1.02460       -2.30400       -0.09400
C          2.48350       -2.32690       -0.11360
C          3.04570       -1.18830        0.74210
C          4.57840       -1.18470        0.71000
C          5.29530       -0.22950        1.64310
N          6.22430       -1.28020        2.07370
C          5.31680       -2.26580        1.47590
H          0.67400       -3.09600       -0.67990
H          0.68950       -1.41570       -0.53340
H          2.84250       -2.22360       -1.16210
H          2.83590       -3.30190        0.28810
H          2.68240       -1.29320        1.78830
H          2.68510       -0.21720        0.33920
H          5.02480       -1.08580       -0.30570
H          4.65510        0.07630        2.50530
H          5.78600        0.62600        1.13090
H          6.22050       -1.36550        3.11720
H          4.68410       -2.71980        2.27600
H          5.82420       -3.01620        0.83280
