19
6403	1
C          1.00100       -2.03620       -0.07930
N          2.46210       -1.97520       -0.03750
C          2.91280       -1.03410        0.99340
C          4.44330       -0.98170        1.02190
C          5.09270       -0.23180        2.16790
N          6.02260       -1.33720        2.42310
C          5.18200       -2.18600        1.57220
H          0.68540       -2.75060       -0.86840
H          0.56980       -1.03830       -0.31490
H          0.60010       -2.39640        0.89230
H          2.80070       -1.64520       -0.97190
H          2.53140       -1.35280        1.98930
H          2.52920       -0.01260        0.77430
H          4.92210       -0.66300        0.06830
H          4.40550       -0.11340        3.03970
H          5.59290        0.71330        1.86660
H          5.95340       -1.64480        3.42160
H          4.52870       -2.82550        2.21260
H          5.75160       -2.75770        0.80910
