19
6407	1
C          0.92330        0.12360        0.03780
C          2.44790        0.10110       -0.01860
C          2.98390        1.20770       -0.93340
C          4.51630        1.16620       -1.00330
C          5.18100        2.34040       -1.68040
O          5.98260        2.60220       -0.55050
C          5.26910        1.65480        0.21160
H          0.56340       -0.68750        0.70530
H          0.49690       -0.03450       -0.97570
H          0.56620        1.09710        0.43650
H          2.77880       -0.88990       -0.39940
H          2.84600        0.23830        1.01020
H          2.64370        2.19880       -0.55860
H          2.58210        1.06260       -1.95970
H          4.95920        0.21570       -1.37780
H          4.50170        3.20790       -1.84360
H          5.78140        2.04470       -2.56830
H          4.63080        2.19650        0.94600
H          5.93050        0.87670        0.65090
