19
6555	1
C          0.95860        0.79080       -0.62630
C          2.06440       -0.11970       -0.10080
C          2.52550       -1.16770       -1.01650
N          3.33470        0.07190       -0.82530
C          4.49590       -0.13710        0.06190
C          5.71900       -0.51150       -0.77570
N          6.88780       -0.68730        0.07990
H         -0.02760        0.34670       -0.37970
H          1.02160        0.93850       -1.72680
H          1.03830        1.78160       -0.13280
H          2.15390       -0.31780        0.99080
H          2.14340       -1.16830       -2.05940
H          3.03380       -2.06470       -0.59930
H          4.33460       -0.92800        0.83260
H          4.70270        0.81500        0.59640
H          5.92000        0.28330       -1.52840
H          5.51580       -1.46460       -1.31160
H          7.12720        0.22790        0.52600
H          7.69710       -0.96950       -0.51880
