17
6557	1
C          0.93380        0.19530       -0.24200
C          2.44810        0.13200       -0.06620
C          3.15940       -0.81910       -0.92520
N          3.16370        0.63580       -1.25430
C          4.45130        1.26850       -0.90830
C          4.27540        2.78060       -0.84890
F          5.48970        3.38230       -0.57190
H          0.45570       -0.53370        0.44480
H          0.62040       -0.03350       -1.28380
H          0.58040        1.21500        0.01640
H          2.90410        0.38840        0.91580
H          2.58860       -1.35020       -1.71600
H          4.16120       -1.18020       -0.60160
H          5.18870        1.03040       -1.70500
H          4.87900        0.91950        0.06100
H          3.54920        3.04800       -0.05240
H          3.89940        3.15820       -1.82350
