15
6519	1
F          2.15500       -0.46080        0.68480
C          2.03420        0.88740        0.97280
C          2.84270        1.71750       -0.01880
C          4.32940        1.33830        0.04880
C          5.19240        2.35590       -0.67150
C          5.26590        2.21910        0.85470
F          6.28670        1.42140        1.34190
H          2.38920        1.07530        2.00870
H          0.96290        1.17220        0.90740
H          2.68650        2.79500        0.21180
H          2.46660        1.52550       -1.04670
H          4.65450        0.31720       -0.24730
H          4.84680        3.40030       -0.82630
H          6.19260        2.04640       -1.04290
H          4.63390        2.77880        1.57690
