19
6532	1
C          0.86150       -0.11730        0.98930
C          2.35550       -0.00380        1.25140
O          3.01300       -1.08280        0.62930
C          4.38980       -0.94840        0.87930
C          5.14200       -1.75230       -0.19340
C          5.18260       -0.23940       -0.20700
C          6.41200        0.46230        0.37050
H          0.32890        0.72710        1.47570
H          0.47410       -1.07300        1.40210
H          0.66360       -0.08640       -0.10330
H          2.51250       -0.02970        2.35460
H          2.70110        0.96950        0.83230
H          4.77290       -1.38110        1.82930
H          4.61690       -2.04550       -1.12790
H          6.17230       -2.11270        0.01530
H          4.50000        0.31360       -0.88860
H          6.96210       -0.17340        1.09820
H          6.09560        1.39500        0.88270
H          7.09970        0.72760       -0.45870
