19
6524	1
C          1.18720        1.26620       -2.27960
O          2.59370        1.17690       -2.27940
C          3.05080        1.00180       -0.95680
C          4.58090        0.97470       -0.97640
C          5.17320        0.44400        0.33330
C          5.26130       -0.37680       -0.95840
C          6.59670       -0.38490       -1.70440
H          0.84670        1.40040       -3.32680
H          0.83720        2.15420       -1.70750
H          0.72120        0.32820       -1.90390
H          2.64690        0.05510       -0.52700
H          2.74800        1.86310       -0.31860
H          5.14440        1.87940       -1.29240
H          4.55620       -0.16670        1.02680
H          6.20200        0.75560        0.61370
H          4.54460       -1.21700       -1.08740
H          7.19310        0.53540       -1.52220
H          6.40610       -0.47400       -2.79420
H          7.19050       -1.26200       -1.37370
