20
6528	1
C          1.79860       -1.10750       -0.09810
C          3.18480       -0.72630        0.40760
N          3.74760        0.34320       -0.41900
C          5.08620        0.68130        0.06370
C          6.24120        0.02180       -0.70020
C          5.83470        1.45570       -1.00490
C          6.91400        2.44290       -0.55960
H          1.38600       -1.92940        0.52410
H          1.85820       -1.45040       -1.15280
H          1.11360       -0.23510       -0.03690
H          3.83700       -1.62630        0.35350
H          3.10850       -0.39830        1.46910
H          3.14710        1.19680       -0.33160
H          5.18010        1.22610        1.02960
H          5.79790       -0.79680       -1.30700
H          6.98230       -0.21430        0.09300
H          5.44170        1.50200       -2.04350
H          7.27000        2.24510        0.47490
H          6.49960        3.47130       -0.59870
H          7.77900        2.38230       -1.25280
