16
6518	1
O          2.45440        1.02150       -0.88350
C          2.13050       -0.22990       -0.34310
C          2.99410       -0.50900        0.88540
C          4.48510       -0.52130        0.51290
C          5.32750       -1.11890        1.62290
C          5.16480       -1.85920        0.28900
F          6.17900       -1.67220       -0.63410
H          1.86420        1.14120       -1.67220
H          2.30200       -1.02880       -1.09930
H          1.06250       -0.23470       -0.03020
H          2.67900       -1.48280        1.32280
H          2.81710        0.28230        1.64570
H          4.97380        0.40960        0.15190
H          4.89050       -1.81790        2.36750
H          6.40470       -0.85410        1.68260
H          4.36060       -2.59030        0.05880
