18
6525	1
C          1.29350        1.26130       -0.96010
O          2.68510        1.16970       -0.75630
C          3.26260        0.41710       -1.80030
C          4.76620        0.29200       -1.53850
C          5.67680        0.10470       -2.73780
C          5.56230        1.48100       -2.05180
N          6.82900        1.77960       -1.38300
H          0.84200        1.74460       -0.06990
H          0.82030        0.25770       -1.04950
H          1.06270        1.89990       -1.84050
H          3.07310        0.90150       -2.78700
H          2.85530       -0.61860       -1.80490
H          5.12440       -0.09450       -0.55880
H          5.03260       -0.12010       -3.61460
H          6.44230       -0.62880       -2.40400
H          5.25580        2.16940       -2.86830
H          7.04560        1.09670       -0.62170
H          6.74050        2.72240       -0.94300
