16
6515	1
O          0.85620        0.38040       -0.75420
C          2.12530        0.24180       -0.18370
C          2.97860       -0.90470       -0.75370
C          3.16490        0.50950       -1.25950
C          4.52490        1.08170       -0.83340
C          4.56100        2.59110       -1.04950
F          4.35970        2.89210       -2.38520
H          0.29260       -0.29400       -0.29580
H          2.37600        0.91750        0.66220
H          2.27680       -1.57810       -1.29110
H          3.53860       -1.28130        0.12860
H          2.85270        0.56130       -2.32550
H          5.32420        0.60720       -1.44240
H          4.73570        0.87280        0.23930
H          5.55140        2.98600       -0.73960
H          3.77490        3.08450       -0.43900
