16
6535	1
C          1.02040        0.11520       -0.01030
C          2.53480        0.04230       -0.13280
O          3.05180       -0.64740        0.98100
C          4.44950       -0.70780        0.83900
C          4.95010       -1.82080        1.74970
C          5.00240       -1.99920        0.24700
F          6.19970       -1.68570       -0.37140
H          0.59810        0.65870       -0.88180
H          0.73910        0.65290        0.92010
H          0.59140       -0.90900        0.01780
H          2.92580        1.08560       -0.16650
H          2.77370       -0.49300       -1.08060
H          5.02880        0.17200        1.19470
H          4.25810       -2.61850        2.09500
H          6.01060       -1.82180        2.08200
H          4.18170       -2.43700       -0.36050
