17
6547	1
C          0.96050       -2.13040        0.47450
O          2.36530       -2.21680        0.54760
C          2.88800       -0.97640        0.96850
C          4.41130       -1.07450        0.98120
O          4.98390       -0.00700        1.70380
C          5.06910       -1.28650        2.29230
C          6.50490       -1.79940        2.27700
H          0.56750       -3.11420        0.14560
H          0.63930       -1.38180       -0.28360
H          0.51470       -1.91920        1.47200
H          2.50920       -0.71490        1.98440
H          2.61980       -0.17020        0.24850
H          4.97670       -1.25080        0.04140
H          4.46390       -1.32160        3.22290
H          6.99810       -1.63680        1.29420
H          6.50480       -2.88610        2.50120
H          7.09040       -1.27280        3.05920
