14
6492	1
F          0.93000        0.14310        0.55210
C          2.27790        0.23520        0.41200
C          3.07200       -0.68740        0.96180
C          4.56810       -0.60660        0.81620
C          5.20950        0.52440        1.59060
C          5.97570       -0.60500        2.24230
O          5.22890       -1.59200        1.56990
H          2.69990        1.06360       -0.14930
H          2.63180       -1.51040        1.51740
H          4.91620       -0.65070       -0.24120
H          4.51570        0.98330        2.33030
H          5.83910        1.20050        0.97310
H          5.82510       -0.65250        3.34320
H          7.03610       -0.64940        1.90650
