17
6511	1
N          0.92920        0.46090       -0.79280
C          2.22440        0.20970       -0.15700
C          3.05030       -0.97220       -0.68440
C          3.34880        0.44530       -1.15610
C          4.71170        0.91390       -0.62560
C          4.91900        2.39640       -0.91860
F          4.88240        2.62750       -2.28260
H          0.18580        0.12270       -0.14140
H          0.81680       -0.05040       -1.69880
H          2.45880        0.78690        0.76290
H          2.36930       -1.61330       -1.28380
H          3.53540       -1.38830        0.22430
H          3.15110        0.47680       -2.24990
H          5.51600        0.33110       -1.12450
H          4.79750        0.75380        0.47260
H          5.90920        2.71500       -0.52960
H          4.13010        3.00030       -0.42140
