18
6655	1
C          2.71440        0.60770       -1.34980
C          2.33210       -0.02750       -0.01580
F          0.95870       -0.20180        0.02860
C          3.05530       -1.36780        0.18330
C          2.67480       -2.21540        1.39940
C          2.91300       -3.44610        0.52000
C          2.66160       -2.55540       -0.69970
H          2.19580        1.58320       -1.46160
H          2.41750       -0.05150       -2.19310
H          3.81070        0.78210       -1.39320
H          2.62780        0.66020        0.80520
H          4.16670       -1.25530        0.16450
H          1.57830       -2.13410        1.58730
H          3.26270       -2.10410        2.33490
H          2.27860       -4.34530        0.66950
H          3.99930       -3.69970        0.55410
H          1.56280       -2.53290       -0.89050
H          3.23860       -2.74560       -1.62930
