13
6621	1
F          0.80510       -1.65170        0.65140
C          2.15170       -1.75880        0.79430
C          2.92240       -0.66930        0.70820
C          4.41860       -0.74580        0.87100
C          5.00090       -1.65650       -0.20990
C          5.27700       -0.16570       -0.24470
F          6.47100        0.25050        0.31770
H          2.59100       -2.73450        0.97950
H          2.46130        0.29770        0.53180
H          4.83690       -1.13310        1.82490
H          4.46180       -1.84270       -1.16390
H          5.99020       -2.13280       -0.03950
H          4.64860        0.57480       -0.78540
