18
6669	1
C          3.51610        0.01060       -1.06730
C          2.49300       -0.09650        0.07270
O          1.24040       -0.53970       -0.39650
C          3.02560       -0.98000        1.22620
C          2.09830       -1.19940        2.40770
C          2.60100       -2.63010        2.31180
N          3.15300       -2.42120        0.96670
H          3.12730        0.68620       -1.85860
H          3.71820       -0.98670       -1.51260
H          4.47090        0.43080       -0.68510
H          2.35300        0.93020        0.47350
H          1.38420       -1.25870       -1.06450
H          4.01280       -0.60940        1.59370
H          1.03900       -1.18710        2.07030
H          2.30140       -0.63360        3.34180
H          1.81700       -3.41660        2.39180
H          3.45120       -2.79910        3.01310
H          2.41080       -2.72700        0.29600
