15
6638	1
C          1.11260        0.01580       -0.07100
N          2.57850        0.03810        0.08060
C          3.22570       -0.86960       -0.88720
C          3.27240        0.58420       -1.11470
C          4.53240        1.27100       -0.67550
C          5.34370        1.83110       -1.57460
F          6.48270        2.45070       -1.17000
H          0.70220       -0.84420        0.49800
H          0.75900       -0.06220       -1.12510
H          0.69240        0.94570        0.36450
H          2.52150       -1.44590       -1.52770
H          4.12560       -1.33480       -0.43100
H          2.55320        1.15730       -1.74220
H          4.79170        1.31580        0.37930
H          5.10320        1.79680       -2.63320
