17
6641	1
C          0.86580        0.76010        0.24070
N          2.13340        1.22300        0.76050
C          3.25420        0.68440        0.43010
N          4.46280        1.18050        0.98970
C          5.47100        0.29290        1.45890
C          5.63750        1.27330        0.21390
C          6.32760        2.61170        0.44540
H          0.36680        1.59110       -0.29920
H          0.22010        0.44320        1.08560
H          0.98470       -0.09830       -0.45670
H          3.28280       -0.15350       -0.26490
H          5.15190       -0.75840        1.28610
H          5.72680        0.62170        2.48760
H          5.48280        0.90220       -0.82350
H          6.38150        2.86610        1.52620
H          5.77430        3.41290       -0.08760
H          7.36030        2.56050        0.04290
