20
6653	1
C          3.51610        0.48380       -1.02260
C          2.54290       -0.03000        0.04550
N          1.19910       -0.19710       -0.51630
C          3.06790       -1.33690        0.67790
C          2.18830       -2.06980        1.69330
C          2.80610       -3.37140        1.17190
C          3.12200       -2.63610       -0.13440
H          3.15260        1.44810       -1.43670
H          3.61000       -0.24910       -1.85220
H          4.52000        0.65170       -0.57750
H          2.48750        0.72760        0.85830
H          1.22720       -0.80470       -1.36620
H          0.82980        0.73680       -0.80870
H          4.07160       -1.17760        1.14360
H          1.12370       -2.03720        1.36370
H          2.29360       -1.82130        2.77050
H          2.17970       -4.28790        1.13620
H          3.76340       -3.55060        1.71690
H          2.22850       -2.72530       -0.79150
H          4.05730       -2.88880       -0.67690
