15
6632	1
C          1.02280        0.31640       -0.27130
C          2.53690        0.27940       -0.04160
N          3.22250       -0.87750       -0.63520
C          3.37770        0.48290       -1.22110
C          4.76760        0.97110       -0.95430
N          5.12510        2.12900       -1.37560
O          6.34250        2.57320       -1.14930
H          0.52640       -0.36360        0.45170
H          0.73980        0.01320       -1.30270
H          0.65670        1.34960       -0.09830
H          2.96070        0.54000        0.95220
H          2.55550       -1.42110       -1.23170
H          3.02040        0.44000       -2.27500
H          5.47250        0.34890       -0.40620
H          6.60530        3.44680       -1.46860
