19
6662	1
C          0.85030       -0.13030       -0.04190
C          2.37690       -0.02820        0.05940
C          3.01050       -1.38680       -0.29160
C          2.87110        1.16230       -0.80220
C          4.34620        1.41940       -0.99350
O          4.17420        1.58330       -2.38590
C          2.85400        1.08730       -2.30970
H          0.47160       -0.93410        0.62520
H          0.54080       -0.35640       -1.08500
H          0.37900        0.82580        0.27130
H          2.63530        0.19920        1.11680
H          2.76980       -1.69720       -1.32840
H          2.62070       -2.16900        0.39450
H          4.11030       -1.36610       -0.16290
H          2.40370        2.12870       -0.50220
H          5.00240        0.53910       -0.83190
H          4.69560        2.34250       -0.48160
H          2.84960        0.05660       -2.72310
H          2.10020        1.76370       -2.76840
