16
6760	1
C          0.95590       -0.08390       -0.00670
C          2.48570       -0.10240        0.01220
C          3.04010       -0.91760       -1.13600
C          3.23120        0.60920       -1.11520
C          4.54940        1.13420       -0.60550
F          5.70450        0.69700       -1.17310
C          4.60170        2.03710        0.37950
H          0.57000       -1.07290        0.31820
H          0.54510        0.14610       -1.01390
H          0.59680        0.68820        0.70450
H          3.01260       -0.40590        0.94350
H          2.44100       -1.10410       -2.05290
H          4.04420       -1.38000       -1.02270
H          2.51290        1.32670       -1.56740
H          3.69180        2.40890        0.84130
H          5.56020        2.40890        0.72660
