14
6708	2
N          1.87520       -0.61030        0.21830
C          1.88990        0.71480       -0.06440
O          1.33210        1.49870        0.68850
C          2.57870        1.24620       -1.30050
C          3.81210        2.07070       -1.00690
C          4.47000        1.07730       -1.93800
O          3.31070        0.28090       -2.01620
H          1.39840       -0.95420        1.06510
H          2.33410       -1.29260       -0.40160
H          1.88200        1.76770       -1.99600
H          4.18880        1.90760        0.02800
H          3.77760        3.11390       -1.38810
H          5.31910        0.53570       -1.46640
H          4.68480        1.51190       -2.94030
