14
6698	1
F          1.17780        1.24540       -0.41920
C          1.66620        0.10560        0.13980
C          1.24490       -1.07800       -0.31270
C          2.68220        0.17890        1.25090
C          2.90630        1.52490        1.89900
O          2.62820        1.00690        3.18060
C          2.19290       -0.21300        2.62380
H          0.51650       -1.12620       -1.11570
H          1.62350       -2.00190        0.11460
H          3.66040       -0.30820        1.03820
H          2.13050        2.28500        1.65400
H          3.95480        1.88180        1.80210
H          1.08260       -0.26220        2.70410
H          2.73120       -1.09210        3.04030
