13
6775	2
N          1.11060        0.14050       -0.56020
C          2.44800       -0.02430       -0.42860
O          2.97930       -1.03930       -0.85260
C          3.28600        1.02310        0.25770
C          4.46350        1.61810       -0.50680
C          3.13080        2.34030       -0.49920
F          3.29580        3.49500        0.24580
H          0.53950       -0.58170       -1.02370
H          0.64840        0.98680       -0.19660
H          3.06060        1.27090        1.31720
H          4.70230        0.91910       -1.33730
H          5.22070        1.84170        0.27450
H          2.88220        2.44280       -1.57760
