15
6763	2
N          0.87230        0.00850       -0.09380
C          2.31790       -0.08200        0.12800
C          3.16500       -0.63730       -1.01470
C          3.03190        0.87390       -0.83030
C          4.42070        1.42770       -0.56570
N          5.15710        1.06700        0.51670
O          4.88600        2.22940       -1.36080
H          0.41240       -0.70870        0.51040
H          0.59840       -0.18650       -1.08420
H          2.65740        0.19010        1.14640
H          2.48250       -1.16440       -1.71420
H          3.95190       -1.22360       -0.49370
H          2.52280        1.22960       -1.75310
H          4.81230        0.38940        1.20820
H          6.09570        1.46960        0.65700
