15
6695	1
N          2.79460        1.25920       -0.02370
C          2.25730       -0.04560        0.13050
N          1.11080       -0.21070        0.68990
C          3.03460       -1.23330       -0.38170
C          4.30020       -1.56060        0.37070
O          3.91590       -2.90840        0.52800
C          2.62120       -2.62360        0.04700
H          2.27780        2.08410        0.31450
H          3.71010        1.39250       -0.47690
H          0.56570        0.59090        1.03980
H          3.24300       -1.21970       -1.47480
H          4.35200       -1.09030        1.37980
H          5.21650       -1.43890       -0.24720
H          1.91790       -2.64880        0.90970
H          2.33040       -3.27070       -0.80900
