14
6691	1
O          1.28080       -0.62470       -0.05590
C          2.25670        0.24010        0.29020
O          2.53290        0.41030        1.46880
C          2.99940        0.98910       -0.78210
C          3.14220        2.49020       -0.62530
N          4.57760        2.42850       -0.92290
C          4.51450        0.97540       -0.73090
H          0.78960       -1.11900        0.61520
H          2.67190        0.76400       -1.82210
H          2.99480        2.82490        0.42950
H          2.55760        3.08140       -1.36250
H          5.12690        2.87110       -0.15020
H          4.90420        0.71660        0.28280
H          4.99130        0.39450       -1.54930
