18
6726	1
C          0.90120       -0.27040       -0.03060
C          2.41620       -0.05680        0.04120
N          3.12680       -1.31910       -0.20190
C          2.82360        1.08280       -0.92750
C          4.31470        1.14390       -1.17750
C          3.34560        0.80010       -2.32810
O          3.01250        1.88060       -3.15100
H          0.58770       -1.04360        0.70220
H          0.60450       -0.59920       -1.04980
H          0.36910        0.67520        0.20870
H          2.66900        0.28800        1.06850
H          2.80360       -1.76530       -1.08980
H          2.91710       -1.98610        0.57600
H          2.42640        2.10230       -0.72680
H          4.96430        0.24650       -1.10740
H          4.76950        2.12540       -1.43140
H          2.91690       -0.17860       -2.61810
H          3.75810        1.94930       -3.80040
