16
6712	1
C          3.29960        1.04080       -0.80100
C          2.65180       -0.18880       -0.23500
O          1.54670       -0.10510        0.28010
N          3.28330       -1.39000       -0.29120
C          4.54400       -1.73520       -0.82720
C          4.22220       -3.19390       -0.37110
C          2.86100       -2.65500        0.17340
H          2.64340        1.92730       -0.66790
H          3.48970        0.89820       -1.88530
H          4.26230        1.22930       -0.28150
H          5.35540       -1.23520       -0.25520
H          4.54970       -1.58050       -1.92800
H          4.89330       -3.52980        0.44880
H          4.08150       -3.87750       -1.23620
H          2.77060       -2.64660        1.28130
H          1.96480       -2.99200       -0.39130
