15
6733	1
C          1.13300        0.52510       -0.23500
C          2.52100       -0.08070       -0.06430
F          3.39300        0.53480       -0.95050
C          2.97830        0.06140        1.39980
C          4.45610       -0.23520        1.56740
C          3.92000        1.18710        1.78690
F          3.65400        1.53290        3.10060
H          0.79390        0.39610       -1.28460
H          1.15510        1.61010        0.00300
H          0.40640        0.02010        0.43690
H          2.47190       -1.16190       -0.31610
H          2.41150       -0.46540        2.19800
H          5.17570       -0.11720        0.73000
H          4.82570       -0.56680        2.56110
H          3.81780        1.96800        1.00420
