14
6703	1
O          2.79310       -0.79620       -0.75360
C          2.15730        0.11840        0.00850
O          0.93550        0.16170        0.01920
C          2.96440        1.08370        0.84130
C          2.65440        2.55800        0.65700
C          2.73070        2.58170        2.17490
N          2.63820        1.11910        2.27280
H          2.29870       -1.42500       -1.29800
H          4.06160        0.90380        0.73960
H          1.58700        2.69080        0.37060
H          3.37630        3.17980        0.08640
H          1.92050        3.14810        2.68640
H          3.74810        2.88780        2.51460
H          1.62220        0.89330        2.40090
