17
6766	1
C          2.66630       -1.28570       -0.56100
C          2.75140        0.16010       -0.14000
C          2.38570        1.13500       -0.98640
C          3.21700        0.50920        1.25530
C          4.62750       -0.04850        1.47610
C          4.41050        1.45000        1.40730
O          4.37910        2.09830        2.64870
H          2.28900       -1.39580       -1.60040
H          1.97600       -1.82640        0.11950
H          3.66800       -1.75970       -0.50870
H          2.03690        0.90290       -1.98800
H          2.42890        2.17670       -0.68310
H          2.62930        0.12830        2.11780
H          5.31440       -0.25230        0.62640
H          4.95270       -0.27360        2.51500
H          4.60130        2.04070        0.48510
H          3.58110        2.68770        2.62940
