15
6818	1
C         -0.98370        0.00600       -1.07570
C         -0.60090        1.03010        0.01800
C         -1.02860       -0.04510        1.04400
C         -0.61270       -1.07060       -0.03280
C          0.91130       -1.17290       -0.00300
C          1.56600        0.00130        0.03910
O          0.80090        1.13760        0.05030
H         -0.44440        0.03090       -2.04800
H         -2.08910        0.01480       -1.23260
H         -1.08420        2.02940        0.03180
H         -2.13970       -0.04270        1.15410
H         -0.53100       -0.06750        2.03830
H         -1.10430       -2.06570       -0.06720
H          1.43290       -2.12420       -0.01490
H          2.64920        0.05100        0.06330
