13
6863	2
O          1.79530        0.21870        1.28930
C          2.56660       -0.03950        0.37880
C          3.02880       -1.38800        0.03580
C          3.96460       -1.04900       -1.14790
C          5.12030       -0.19330       -0.83530
N          3.90380        0.41130       -1.43920
N          3.06920        0.89200       -0.43240
H          2.16120       -1.99490       -0.29810
H          3.57430       -1.88910        0.86340
H          4.19720       -1.74680       -1.97950
H          5.93000       -0.14680       -1.59340
H          5.28930        0.19970        0.19370
H          2.83760        1.89280       -0.34920
