13
6874	1
F          1.04650       -0.07190       -0.72590
C          2.32170        0.02900       -0.26930
C          2.97090        1.15270       -0.16420
C          4.34690        0.93650        0.34730
C          5.22900        0.08890       -0.46460
N          4.43860       -0.53190        0.61890
C          3.15860       -1.11260        0.14950
H          2.55750        2.11690       -0.42850
H          4.68300        1.44760        1.27350
H          6.30200        0.14440       -0.18750
H          4.89390       -0.20330       -1.48620
H          2.66590       -1.64300        0.99120
H          3.31750       -1.82350       -0.69070
