14
6789	1
C          0.92030       -0.14870       -0.02630
C          2.42540        0.02470        0.13790
O          3.13740       -0.58440       -0.89920
C          3.11670        0.83410       -0.90070
C          4.50060        1.32300       -0.59200
F          5.53060        0.96870       -1.40510
C          4.73180        2.11120        0.46140
H          0.63110       -1.16720        0.30640
H          0.59720       -0.01400       -1.08140
H          0.39680        0.59730        0.60670
H          2.92060       -0.13010        1.12010
H          2.63200        1.14120       -1.85130
H          3.92160        2.41130        1.11940
H          5.73780        2.46120        0.66870
