13
6853	1
N          1.24840        0.07180        0.79720
C          2.27680        0.00510        0.03280
N          2.89900       -1.17640       -0.33170
C          4.00990       -0.88250       -1.19800
C          5.10330       -0.00570       -0.60370
C          3.94680        0.69000       -1.29840
O          2.87120        1.06940       -0.49660
H          0.82380       -0.78290        1.18580
H          2.60560       -2.12120       -0.04450
H          3.96570       -1.26680       -2.24010
H          6.04020       -0.03740       -1.19740
H          5.09230        0.03600        0.50680
H          3.92270        0.96230       -2.37600
