13
6788	1
C          0.96550        0.14810       -0.10410
C          2.44890        0.36690        0.17010
O          3.24940       -0.49840       -0.58400
C          3.26850        0.86700       -0.96710
C          4.63750        1.42080       -0.68560
O          5.37170        1.91520       -1.70390
O          5.08720        1.43200        0.45170
H          0.62000       -0.75010        0.44870
H          0.75740        0.00120       -1.18620
H          0.39530        1.03020        0.25360
H          2.82760        0.47310        1.20850
H          2.87300        0.91270       -2.00410
H          6.25540        2.27980       -1.55300
