18
6801	1
C          0.84770       -1.24170        0.24010
N          1.63120       -0.00080        0.04050
C          0.84970        1.24170        0.23820
C         -0.66080        1.04620       -0.06170
C         -1.20300        0.00210        0.91340
C         -0.66240       -1.04450       -0.05990
C         -0.84410       -0.00000       -1.17810
H          0.97130       -1.60940        1.28140
H          1.25220       -2.02880       -0.43460
H          1.94980       -0.00150       -0.95770
H          1.25530        2.02720       -0.43780
H          0.97370        1.61090        1.27890
H         -1.19900        2.01750       -0.10140
H         -2.31850        0.00280        0.86510
H         -0.86240        0.00270        1.97230
H         -1.20190       -2.01520       -0.09780
H         -1.91050        0.00030       -1.50750
H         -0.16430       -0.00140       -2.05730
