14
6857	1
O          1.73590       -0.00830        1.39410
C          2.52650       -0.03950        0.46440
C          3.01420       -1.30800       -0.13340
C          3.95290       -0.83250       -1.23930
N          5.09350       -0.09860       -0.65280
C          3.97240        0.63840       -1.27190
C          3.04890        1.18770       -0.18770
H          2.15680       -1.86620       -0.56490
H          3.55140       -1.93850        0.60690
H          4.34450       -1.52780       -2.01450
H          5.88040       -0.12400       -1.34370
H          4.38260        1.28880       -2.07600
H          2.20720        1.75100       -0.64280
H          3.60460        1.83400        0.52490
