15
6884	1
F          0.96100       -0.02080        0.00710
C          2.34480       -0.06080       -0.04430
C          2.91790       -1.17970        0.82760
C          3.67990       -0.27480        1.80250
C          4.40450        0.65740        0.85000
C          2.96120        1.10890        0.73090
N          2.71780        0.77670        2.13650
H          2.70180       -0.09710       -1.09740
H          3.60810       -1.85130        0.27040
H          2.13050       -1.75940        1.35760
H          4.23480       -0.76790        2.62900
H          4.94780        0.25250       -0.03550
H          5.00760        1.40610        1.41270
H          2.72700        2.13620        0.37910
H          1.74900        0.43370        2.34870
