16
6837	1
N          1.13220        0.07190        0.33790
C          2.58510        0.00150        0.11820
C          2.97400       -1.37870       -0.42520
C          2.62640       -1.27710       -1.90880
O          3.70460       -0.66680       -2.56470
C          2.62770        0.18100       -2.27000
C          2.97690        0.96370       -1.00560
H          0.86300       -0.59280        1.09940
H          0.58970       -0.17520       -0.52180
H          3.07570        0.24660        1.08530
H          2.43160       -2.18830        0.10800
H          4.06860       -1.55650       -0.32540
H          2.38420       -2.15540       -2.54160
H          2.38620        0.66220       -3.23990
H          2.43370        1.92820       -0.91000
H          4.07180        1.16580       -1.00020
