17
6845	1
C          1.00240        0.00870        0.04290
C          2.33960       -0.01210       -0.00550
C          3.15410       -1.22680       -0.10240
C          4.07700       -0.85890       -1.27530
C          5.33780       -0.07470       -0.99080
C          4.10080        0.73580       -1.30430
C          3.18990        1.17350       -0.14610
H          0.43820       -0.91780        0.08060
H          0.46610        0.95250        0.04660
H          2.57330       -2.15920       -0.26940
H          3.75850       -1.33010        0.82560
H          3.72770       -1.12600       -2.29890
H          6.06930       -0.10080       -1.82470
H          5.65810       -0.06020        0.07280
H          3.75910        0.97580       -2.33710
H          2.63710        2.11610       -0.34720
H          3.79760        1.29250        0.77780
