17
6836	1
C          1.05150        0.12100        0.23550
C          2.58030        0.07040        0.02580
C          2.99470       -1.30940       -0.49650
C          2.67800       -1.22500       -1.98890
O          3.76470       -0.61150       -2.62760
C          2.67470        0.22970       -2.36420
C          2.98930        1.02700       -1.09940
H          0.75350       -0.60450        1.02220
H          0.49180       -0.12000       -0.69350
H          0.74950        1.13530        0.57330
H          3.04110        0.32420        1.00510
H          2.45510       -2.12440        0.03190
H          4.08920       -1.47240       -0.37280
H          2.45710       -2.11150       -2.61800
H          2.45070        0.70020       -3.34360
H          2.44560        1.99360       -1.03070
H          4.08300        1.23420       -1.07120
