15
6858	1
C          1.02840       -0.00630        0.62980
C          2.18750       -0.02680       -0.03600
C          2.87850       -1.29210       -0.42520
C          4.12900       -0.80390       -1.14520
O          4.92450       -0.05130       -0.26000
C          4.14020        0.68170       -1.17130
C          2.89730        1.21360       -0.46930
H          0.54460       -0.93390        0.92020
H          0.55870        0.93800        0.88730
H          2.23590       -1.87400       -1.11940
H          3.14430       -1.90780        0.46080
H          4.80950       -1.46150       -1.72450
H          4.83040        1.30820       -1.77310
H          2.26340        1.78030       -1.18360
H          3.17260        1.85600        0.39460
