18
6830	1
C          1.02630        0.02680        0.37720
N          2.47500       -0.04480        0.11320
C          2.86320       -1.35850       -0.39410
C          2.55580       -1.39190       -1.89370
C          3.57980       -0.83700       -2.85300
C          2.55730        0.12380       -2.29800
C          2.86490        0.84130       -0.98080
H          0.75620       -0.68320        1.18770
H          0.42030       -0.21200       -0.52380
H          0.75800        1.04610        0.72810
H          2.36560       -2.19240        0.14800
H          3.95900       -1.48480       -0.24360
H          1.54490       -1.74350       -2.20230
H          3.39350       -1.11900       -3.90980
H          4.60610       -0.72840       -2.44170
H          1.54720        0.27700       -2.74190
H          2.36860        1.83500       -0.92630
H          3.96090        1.02430       -0.91260
