17
6880	1
C          1.04920       -0.08230       -0.02750
C          2.58030       -0.05290        0.06520
O          3.08480       -1.08040        0.89430
C          3.86070       -0.30900        1.79570
C          4.59150        0.68900        0.90200
C          3.15850        1.17470        0.75390
C          2.92660        0.81870        2.21640
H          0.73040       -1.02790       -0.51420
H          0.69670        0.76940       -0.64680
H          0.55650       -0.02800        0.96250
H          2.98980       -0.14540       -0.96790
H          4.40730       -0.91870        2.54550
H          5.13040        0.29290        0.01050
H          5.22990        1.40440        1.47500
H          2.91320        2.16600        0.31680
H          1.91620        0.54120        2.58210
H          3.40810        1.54760        2.91250
