15
6866	1
C          1.04590        0.08040       -0.22670
C          2.51380        0.06950        0.05750
N          3.20800        1.12290        0.19770
C          4.60230        0.81200        0.47240
C          5.35230        0.05620       -0.60970
C          4.64390       -0.75860        0.45950
N          3.26750       -1.08930        0.19010
H          0.66760        1.12280       -0.29110
H          0.50760       -0.44970        0.58620
H          0.85200       -0.43450       -1.19060
H          5.02870        1.14550        1.44360
H          6.45460        0.06870       -0.48430
H          4.85790        0.03580       -1.60500
H          5.07180       -1.07740        1.43490
H          2.89550       -2.04730        0.12100
