19
6938	1
C          3.27010        0.90830       -0.05540
N          3.22170        0.22530       -1.35070
C          3.37020       -1.23960       -1.24350
C          2.91590       -1.91950       -2.55390
N          3.73320       -1.53350       -3.70260
C          4.80060       -1.66620       -0.83670
O          5.75970       -1.19810       -1.74920
H          3.03570        1.98330       -0.20290
H          4.28110        0.84120        0.39750
H          2.51310        0.48570        0.63940
H          3.95010        0.63500       -1.98020
H          2.67550       -1.61540       -0.45810
H          1.85220       -1.66120       -2.75550
H          2.97630       -3.02260       -2.42300
H          3.56350       -0.52790       -3.93040
H          3.42250       -2.09150       -4.53050
H          4.84700       -2.77660       -0.73750
H          5.05590       -1.27220        0.16750
H          6.03150       -1.96830       -2.31330
