18
6926	1
N          1.18190        0.14690        0.18100
C          2.62630        0.25080       -0.00410
C          3.05790       -0.22580       -1.41210
C          2.44610        0.64390       -2.53130
O          1.04580        0.54780       -2.54350
C          4.59340       -0.19850       -1.53410
O          5.17010       -1.05000       -0.58180
H          0.94320        0.48830        1.14000
H          0.90050       -0.85880        0.12090
H          3.12440       -0.37000        0.77380
H          2.94090        1.30720        0.14570
H          2.72420       -1.27760       -1.55850
H          2.81150        0.29410       -3.52060
H          2.78010        1.70390       -2.42550
H          0.68740        1.40300       -2.18890
H          4.96250        0.84150       -1.38290
H          4.88120       -0.54890       -2.55130
H          6.15110       -0.99660       -0.72190
