21
6958	1
C          3.10790        1.29840       -0.64420
C          2.67720       -0.16370       -0.51200
C          3.22560       -0.83080        0.76690
C          2.67310       -2.26670        0.88550
C          3.09960       -2.95610        2.18310
C          4.73990       -0.85310        0.73770
C          5.46850       -0.23390        1.67160
H          2.66500        1.73320       -1.56490
H          4.21250        1.38170       -0.71670
H          2.75430        1.88380        0.23100
H          3.01480       -0.72590       -1.41070
H          1.56560       -0.18650       -0.48540
H          2.85720       -0.24830        1.64230
H          3.01060       -2.87840        0.01970
H          1.56160       -2.23040        0.87280
H          4.20390       -3.05820        2.23380
H          2.65380       -3.97210        2.22650
H          2.74600       -2.37500        3.06110
H          5.24670       -1.38570       -0.06230
H          4.99320        0.30690        2.48410
H          6.55190       -0.26800        1.62350
