18
6960	1
C          2.88690       -1.24620        0.62180
C          2.47310        0.13890        0.11820
C          3.01390        0.45010       -1.29360
C          2.47320        1.81260       -1.77710
C          2.88710        2.14100       -3.21380
C          4.45790        0.45010       -1.29360
N          5.60890        0.45010       -1.29360
H          2.44700       -1.42180        1.62610
H          3.99110       -1.32430        0.70710
H          2.51760       -2.03260       -0.07020
H          2.82340        0.90970        0.84040
H          1.36160        0.16760        0.09340
H          2.65630       -0.33940       -1.99080
H          2.82340        2.62450       -1.10150
H          1.36160        1.79160       -1.74560
H          3.99130        2.21600       -3.30170
H          2.44720        3.11580       -3.51230
H          2.51780        1.35700       -3.90860
