21
6934	1
C          3.88040        0.89530       -2.31160
C          3.24140        0.42170       -1.00290
C          3.22680       -1.12140       -0.79640
C          2.38950       -1.85390       -1.86440
N          1.01410       -1.36330       -1.88980
N          4.57600       -1.71780       -0.76580
C          5.37420       -1.31320        0.39360
H          3.82880        2.00340       -2.36160
H          3.33900        0.49100       -3.19080
H          4.94850        0.60330       -2.36570
H          2.19630        0.79800       -0.97240
H          3.77340        0.90620       -0.15860
H          2.73280       -1.31950        0.18190
H          2.38390       -2.94390       -1.63830
H          2.84500       -1.72500       -2.86910
H          0.55960       -1.56770       -0.97010
H          0.48870       -1.88640       -2.62710
H          5.10370       -1.53440       -1.64970
H          4.82330       -1.51510        1.33700
H          5.65310       -0.24080        0.33560
H          6.31240       -1.90620        0.41230
