22
6957	1
C          3.84430       -0.70680        1.46960
C          4.28390        0.75910        1.47180
N          4.14220        1.41590        0.14850
C          4.37230        2.87530        0.28900
C          3.99310        3.66890       -0.96330
C          4.92930        0.77510       -0.94020
C          6.44930        0.80620       -0.73390
H          3.89580       -1.10460        2.50490
H          4.51060       -1.33510        0.84570
H          2.79840       -0.79210        1.10640
H          5.32340        0.84300        1.85450
H          3.62100        1.27320        2.20320
H          5.42350        3.09340        0.57390
H          3.72270        3.26820        1.10280
H          4.65460        3.43010       -1.81950
H          4.10690        4.75430       -0.75650
H          2.93590        3.46810       -1.23760
H          4.68970        1.24870       -1.91240
H          4.60650       -0.27650       -1.07130
H          6.82880        1.84630       -0.68710
H          6.94110        0.30580       -1.59420
H          6.74230        0.26000        0.18500
