15
6911	1
C          1.11340       -0.04590       -0.00790
C          2.59750       -0.21190        0.06520
C          3.31240       -1.25830       -0.23130
C          4.67710       -0.75640        0.06940
C          4.62280        0.58670       -0.64350
C          3.63290        0.75790        0.49760
O          4.42320       -0.10000        1.29750
H          0.63270       -0.97780       -0.37410
H          0.86950        0.78450       -0.70230
H          0.71890        0.19290        1.00130
H          2.97950       -2.22310       -0.59090
H          5.56470       -1.41390       -0.04610
H          4.27780        0.64820       -1.70360
H          5.54980        1.17520       -0.45820
H          3.35830        1.77290        0.85570
