23
6913	1
C          3.03030       -1.25480        0.16420
C          2.72660        0.21940        0.43790
C          3.20180        1.17470       -0.69160
C          2.81290        2.64870       -0.40140
C          1.30340        2.89060       -0.32990
C          4.72540        1.06920       -0.98240
C          5.63760        1.40710        0.20110
H          2.61210       -1.87470        0.98510
H          4.12210       -1.44360        0.12680
H          2.56460       -1.57270       -0.79270
H          3.18020        0.51030        1.40890
H          1.62550        0.29350        0.54290
H          2.68580        0.87700       -1.63210
H          3.20010        3.28400       -1.22820
H          3.27080        2.99570        0.54870
H          0.81660        2.57070       -1.27550
H          1.11310        3.97490       -0.18420
H          0.84250        2.35610        0.52430
H          4.97750        1.75090       -1.82390
H          4.96920        0.04380       -1.32910
H          5.48560        2.45100        0.54170
H          6.69710        1.30370       -0.11480
H          5.46520        0.71220        1.04800
