18
6954	1
C          4.57660        3.47580        0.89750
O          3.27750        3.67210        0.38210
C          2.99810        2.71200       -0.62500
C          1.47950        2.65470       -0.87630
N          1.15540        1.64860       -1.88370
O          3.74140        2.94440       -1.81700
C          3.60660        4.26820       -2.29240
H          4.74710        4.22060        1.70170
H          5.35160        3.65350        0.12010
H          4.68750        2.47090        1.36130
H          3.26020        1.69080       -0.26060
H          1.08430        3.64440       -1.19060
H          0.97240        2.38740        0.07700
H          1.56340        1.93590       -2.80200
H          0.11730        1.61990       -1.99960
H          4.24000        4.37020       -3.19710
H          3.98250        5.01540       -1.56170
H          2.56990        4.49010       -2.61690
