17
6950	1
C          3.03370       -3.65050        0.06040
O          4.01060       -3.33600        1.02810
C          3.52180       -2.36890        1.94370
C          2.97320       -3.06040        3.20620
O          3.95180       -3.84360        3.83600
C          4.64930       -1.37650        2.26530
O          5.77560       -2.03280        2.78730
H          3.42450       -4.46980       -0.57710
H          2.83780       -2.77970       -0.60300
H          2.09760       -4.02410        0.53070
H          2.69820       -1.74750        1.51290
H          2.09050       -3.68940        2.95100
H          2.61240       -2.29510        3.92600
H          3.99650       -4.70140        3.33840
H          4.28120       -0.58660        2.96220
H          4.95570       -0.85510        1.33340
H          5.77300       -1.88570        3.76900
