17
6927	1
N          1.00800        0.02090        0.06410
C          2.46640       -0.03910        0.03040
C          2.98240       -1.48680        0.19510
C          2.52390       -2.41270       -0.95150
O          1.12690       -2.54770       -0.96850
C          4.51810       -1.48470        0.27860
F          5.07980       -0.98730       -0.88530
H          0.71280        1.01650       -0.05800
H          0.67310       -0.29890        1.00210
H          2.86600        0.59200        0.85610
H          2.82810        0.38300       -0.93290
H          2.59890       -1.89630        1.15620
H          2.95440       -3.42680       -0.80700
H          2.90630       -2.04220       -1.93220
H          0.78630       -1.99900       -1.72260
H          4.89320       -2.51710        0.44540
H          4.85320       -0.86000        1.13400
