13
6976	1
O          1.04180        0.04540        0.01910
C          2.44160        0.10040       -0.01120
C          2.96330       -0.52980       -1.31160
C          2.44170        0.20510       -2.55500
F          2.85080        1.52850       -2.55720
C          4.40730       -0.52980       -1.31160
N          5.55830       -0.52980       -1.31160
H          0.76780        0.46360        0.87640
H          2.84670       -0.47170        0.85490
H          2.77840        1.16030        0.05670
H          2.62050       -1.58640       -1.35640
H          1.33200        0.17240       -2.58380
H          2.81910       -0.28900       -3.47640
