16
6909	1
C          1.20340        0.04890       -0.03850
C          2.68710       -0.13590       -0.02650
C          3.37700       -1.16100       -0.43650
C          4.76830       -0.71290       -0.14060
C          4.68670        0.69230       -0.74130
C          3.74650        0.79120        0.46070
N          4.62140       -0.13120        1.20730
H          0.70070       -0.84290       -0.46940
H          0.94810        0.93920       -0.64960
H          0.84280        0.20160        0.99970
H          3.01530       -2.08500       -0.86800
H          5.61610       -1.39570       -0.35980
H          4.29670        0.84110       -1.77750
H          5.62760        1.26220       -0.56410
H          3.45950        1.76770        0.90550
H          4.12070       -0.74620        1.89770
