17
6963	1
C          3.24440        0.89060        1.57430
C          2.61750        0.30430        0.30490
C          3.19140        0.86960       -1.01500
C          2.89570        2.37680       -1.17080
O          3.27270        2.81840       -2.45020
C          4.66370        0.53660       -1.13010
O          5.50780        1.41040       -1.25610
H          2.78690        0.40930        2.46420
H          3.06010        1.98150        1.64620
H          4.33770        0.69930        1.59800
H          1.52090        0.48600        0.33410
H          2.77430       -0.79690        0.31820
H          2.66790        0.34830       -1.84650
H          3.40370        2.97130       -0.37660
H          1.80520        2.55730       -1.05970
H          4.07860        3.38820       -2.34530
H          4.97750       -0.50160       -1.09190
