14
6906	1
O          1.21590        0.04470        0.10220
C          2.43550        0.08210        0.07530
C          3.36890       -1.06730        0.10350
N          4.63360       -0.29040        0.04370
C          4.27320        0.70890       -0.99500
C          3.28830        1.27520        0.00720
C          4.31650        0.79270        1.00980
H          3.24420       -1.73060       -0.78140
H          3.28320       -1.65410        1.04530
H          3.87050        0.31470       -1.96320
H          5.12970        1.39820       -1.21040
H          2.80980        2.27640       -0.02440
H          3.95680        0.48140        2.02400
H          5.18040        1.49600        1.12990
