16
6974	1
O          2.52510       -0.13930        1.50200
C          2.31030       -0.04870        0.11920
C          2.94060        1.23530       -0.44640
C          2.32660        2.49280        0.18400
F          0.96470        2.53760       -0.05720
C          4.43420        1.22810       -0.21140
C          5.30510        1.25020       -1.22530
H          2.10130       -0.98860        1.79150
H          1.21710       -0.04250       -0.08990
H          2.76890       -0.92690       -0.38940
H          2.72690        1.26410       -1.53890
H          2.78960        3.40000       -0.26020
H          2.50040        2.51210        1.28150
H          4.81170        1.20520        0.80730
H          4.96470        1.27380       -2.25600
H          6.37120        1.24470       -1.02310
