19
6919	1
C          2.73200       -1.30020        0.04780
C          2.68480        0.18640        0.40610
C          3.11540        1.12330       -0.75200
C          2.93810        2.60140       -0.33570
N          1.54680        2.89580       -0.00250
C          4.57790        0.88010       -1.17190
F          4.92900        1.72290       -2.21220
H          2.35790       -1.89630        0.90680
H          3.76680       -1.63570       -0.16440
H          2.08700       -1.50470       -0.83290
H          3.32370        0.36570        1.29850
H          1.63310        0.41520        0.68310
H          2.46420        0.92820       -1.63320
H          3.25400        3.27120       -1.16670
H          3.57890        2.82130        0.54680
H          0.95560        2.76670       -0.85570
H          1.47840        3.89920        0.28360
H          4.72130       -0.15860       -1.52980
H          5.26320        1.06000       -0.31600
