18
7004	1
C          2.40470        0.74170       -1.02430
C          2.35620       -0.02830        0.29660
N          3.01420        0.70920        1.37140
C          2.23230        1.15330        2.52630
C          1.70380       -0.03410        3.33210
C          4.35360        0.97250        1.27970
O          4.94070        1.58750        2.15750
H          1.87660        0.16210       -1.81060
H          3.44930        0.90550       -1.35930
H          1.90220        1.72530       -0.90760
H          2.83820       -1.02260        0.17470
H          1.28300       -0.19340        0.53070
H          1.38660        1.78500        2.17830
H          2.83770        1.77230        3.22270
H          1.03270       -0.67540        2.72610
H          1.12760        0.33840        4.20530
H          2.55310       -0.64740        3.70110
H          4.92040        0.62580        0.42120
