11
7046	1
F          2.65550       -0.12570       -1.23930
C          2.23830        0.02570        0.07320
C          2.77390       -1.10660        0.95450
C          2.27510       -2.43680        0.46700
O          1.58910       -3.14090        1.19080
C          4.21790       -1.10660        0.95450
N          5.36890       -1.10660        0.95450
H          1.12740        0.03090        0.09900
H          2.59610        1.00710        0.45320
H          2.42570       -0.93640        1.99700
H          2.52220       -2.77890       -0.53380
