19
7005	1
C          2.57720       -0.12760        1.06300
C          1.73820        0.91670        0.33180
N          2.35160        1.26830       -0.93950
C          1.60280        1.05690       -2.18290
C          0.32980        1.90560       -2.21670
N          3.62210        1.82770       -0.91130
C          4.43730        1.86630       -1.91060
H          2.09350       -0.38500        2.02890
H          3.59500        0.26440        1.27180
H          2.66000       -1.04790        0.44670
H          1.64870        1.82780        0.96160
H          0.72400        0.48790        0.18760
H          1.34310       -0.01930       -2.27870
H          2.17000        1.34730       -3.08280
H         -0.36200        1.64950       -1.38960
H         -0.20560        1.73180       -3.17420
H          0.59230        2.98260       -2.14670
H          5.40780        2.33230       -1.78220
H          4.22270        1.40910       -2.86540
