16
7062	1
C          2.71540       -0.74190        1.32650
C          2.65900       -0.07880       -0.05250
N          3.04400       -1.01320       -1.10960
C          2.01610       -1.43620       -2.02810
N          2.23620       -2.21020       -3.03510
C          4.40430       -1.48910       -1.22000
N          5.36710       -0.99700       -0.51890
H          2.39540       -0.01310        2.10060
H          3.73230       -1.09630        1.58410
H          2.02480       -1.61160        1.35160
H          3.29190        0.83290       -0.09350
H          1.60970        0.26420       -0.18950
H          1.00010       -1.08250       -1.88140
H          3.15210       -2.59700       -3.28370
H          4.66170       -2.26970       -1.91840
H          5.24510       -0.23470        0.15910
