13
7034	1
C          0.90740       -0.01630        0.18800
C          2.43270       -0.11970        0.14900
C          2.91920       -1.22270       -0.80570
C          4.37840       -1.14460       -0.95360
N          5.52650       -1.06360       -1.07720
C          2.54550       -2.55870       -0.31610
N          2.24580       -3.60860        0.06890
H          0.61170        0.82560        0.84860
H          0.45220       -0.95050        0.57760
H          0.51370        0.18370       -0.83200
H          2.82270       -0.29750        1.17700
H          2.82180        0.86030       -0.20440
H          2.47290       -1.06900       -1.81050
