12
7085	1
F          2.64870        0.57260       -1.04480
C          2.23200        0.02190        0.15630
C          2.76820       -1.40320        0.32300
C          2.26860       -2.28830       -0.78310
O          1.58260       -3.26550       -0.52850
C          4.21220       -1.40320        0.32300
C          5.40240       -1.40320        0.32300
H          1.12110        0.01260        0.18140
H          2.59000        0.66430        0.98970
H          2.42010       -1.79780        1.30290
H          2.51520       -2.06240       -1.81640
H          6.46060       -1.40310        0.32280
