14
7027	1
C          1.39190        1.38140        0.10910
O          2.34590        1.49040       -0.92380
C          2.79430        0.21060       -1.33580
C          2.27250       -0.08530       -2.74260
F          0.88980       -0.11630       -2.73800
C          4.23830        0.21060       -1.33580
C          5.42840        0.21060       -1.33580
H          1.03300        2.39970        0.36330
H          1.84890        0.95240        1.02800
H          0.50560        0.79460       -0.21910
H          2.47300       -0.62070       -0.66180
H          2.64640       -1.07230       -3.09200
H          2.61100        0.69800       -3.45520
H          6.48670        0.21060       -1.33590
