14
7043	1
F          2.46430       -1.42450       -0.59350
C          2.30460       -0.23510        0.09620
C          3.05620        0.89720       -0.61000
C          2.81890        2.19420        0.13350
C          2.22690        3.24090       -0.45050
C          4.52860        0.56820       -0.69600
O          5.37470        1.29770       -0.20050
H          2.67930       -0.36590        1.13480
H          1.21930        0.00070        0.13810
H          2.66820        0.97730       -1.64980
H          3.13680        2.27770        1.16950
H          1.89610        3.19300       -1.48340
H          2.07090        4.15670        0.11040
H          4.84370       -0.33220       -1.21370
