14
6996	1
C          2.20070        0.05310        1.03500
O          2.39610        1.21570        0.25950
C          2.87800        0.88040       -1.02990
C          2.34760        1.90210       -2.04270
O          2.77780        3.20140       -1.72980
C          4.32200        0.88040       -1.02990
N          5.47300        0.88040       -1.02990
H          1.91760        0.36150        2.06220
H          3.13680       -0.54240        1.12140
H          1.36430       -0.55820        0.63050
H          2.51780       -0.11730       -1.37850
H          1.23440        1.86210       -2.08100
H          2.70680        1.64750       -3.06350
H          2.15450        3.55290       -1.04170
