17
7014	1
N          1.07070        0.11220        0.14630
C          2.52810        0.02120        0.12280
C          3.02710       -1.13910        1.00510
C          2.48100       -2.49620        0.51210
N          2.89230       -3.58910        1.39200
C          4.47110       -1.13910        1.00510
C          5.66130       -1.13910        1.00510
H          0.77730        0.90320       -0.47160
H          0.75710        0.33530        1.11900
H          2.95520        0.98280        0.48920
H          2.86660       -0.13040       -0.92690
H          2.68110       -0.96740        2.04790
H          2.82200       -2.69970       -0.52850
H          1.36980       -2.45930        0.50820
H          3.92660       -3.72580        1.32430
H          2.44270       -4.47100        1.05490
H          6.71950       -1.13940        1.00490
