13
7071	1
C          3.23950        0.80140        0.87760
N          2.90790       -0.61840        0.73610
N          3.16010       -1.31420        1.92390
C          2.09450       -1.77660        2.63730
O          2.24670       -2.40210        3.67720
C          4.44350       -1.55050        2.34470
O          5.39870       -1.17110        1.68460
H          2.95680        1.33570       -0.05350
H          4.32450        0.95600        1.04730
H          2.66510        1.24340        1.71960
H          3.43360       -1.06070       -0.05400
H          1.08630       -1.58770        2.28070
H          4.63490       -2.09530        3.26490
