14
7018	1
O          1.07970        0.03810        0.07260
C          2.47940        0.06590        0.01320
C          3.00260       -1.22580       -0.63370
C          2.47980       -1.40280       -2.06680
F          2.88720       -0.35540       -2.87650
C          4.44660       -1.22580       -0.63370
C          5.63680       -1.22580       -0.63370
H          0.80510        0.88530        0.51040
H          2.88600        0.14100        1.04780
H          2.81340        0.94810       -0.57960
H          2.66050       -2.09070       -0.02450
H          1.37010       -1.44750       -2.06870
H          2.85780       -2.35630       -2.49550
H          6.69500       -1.22560       -0.63380
