12
7152	1
F          3.09290       -0.45850        0.83900
C          2.18210        0.01750       -0.08940
C          2.84520        0.73790       -1.24150
C          1.96230        1.30230       -2.32720
F          1.09050        2.22800       -1.78410
C          4.18510        0.87110       -1.30170
F          4.78270        1.51780       -2.33840
H          1.48610        0.71110        0.42700
H          1.60030       -0.84230       -0.48270
H          1.37580        0.47940       -2.78680
H          2.54010        1.79970       -3.13400
H          4.82050        0.46450       -0.52210
