14
7186	2
C          1.02200       -0.31800        0.04310
N          2.37810        0.06900       -0.28040
C          2.75810        1.29050       -0.48250
C          1.77710        2.44320       -0.39200
F          2.38990        3.65790       -0.64180
N          4.12380        1.54440       -0.79440
O          4.99850        0.53160       -0.88480
H          0.97960       -1.42000        0.16230
H          0.33080       -0.02630       -0.77580
H          0.70310        0.15120        0.99780
H          1.33520        2.48060        0.62550
H          0.96560        2.30450       -1.13640
H          4.45250        2.50510       -0.96780
H          5.41320        0.47220        0.01380
