9
7128	1
C          0.95490       -0.06490       -0.07860
C          2.16110       -0.06280       -0.07650
C          3.62620       -0.06230       -0.07590
C          4.11810        1.27140       -0.42960
N          4.50730        2.32490       -0.70980
C          4.11810       -0.43060        1.25380
N          4.50730       -0.72240        2.30420
H         -0.10330       -0.06680       -0.08040
H          3.99390       -0.79840       -0.82020
