14
7148	1
O          3.61390        0.28070       -0.85440
C          2.53590       -0.08520       -0.03540
C          2.99030       -0.62760        1.30640
C          1.92690       -1.06840        2.28820
O          1.07600        0.00080        2.59820
C          4.29780       -0.72380        1.62640
F          4.69210       -1.21310        2.83260
H          3.21700        0.61410       -1.70080
H          1.94070       -0.87590       -0.54370
H          1.89530        0.80600        0.14590
H          2.34470       -1.49540        3.22750
H          1.32380       -1.87580        1.82250
H          1.58050        0.59380        3.21460
H          5.06910       -0.41270        0.93040
