16
7179	2
C          1.37380        0.35380        0.31870
N          2.47790       -0.57180        0.45140
C          2.75710       -1.50420       -0.40410
C          1.91040       -1.69590       -1.65420
O          2.35800       -2.76840       -2.43870
N          3.87670       -2.35860       -0.15740
N          4.64920       -2.21930        0.99100
H          1.37590        1.04480        1.18640
H          0.40850       -0.19500        0.30910
H          1.48160        0.95550       -0.60850
H          1.89870       -0.76220       -2.26150
H          0.86200       -1.90780       -1.35760
H          3.09380       -2.42020       -3.00750
H          4.12490       -3.09840       -0.82890
H          4.03170       -2.35590        1.82330
H          5.05050       -1.25430        1.00710
