15
7151	1
C          0.91500        0.13830       -0.13570
C          2.41490        0.22880       -0.01810
C          3.07620        0.53830        1.12580
C          2.33150        0.82540        2.41200
F          3.20220        1.11700        3.44800
C          4.59030        0.60430        1.14200
F          5.15750        0.32320       -0.08980
H          0.64130       -0.88450       -0.46780
H          0.56960        0.86540       -0.89960
H          0.37230        0.34850        0.80620
H          2.97700        0.02800       -0.92450
H          1.73110       -0.06170        2.70490
H          1.65900        1.69770        2.27040
H          4.98050       -0.12810        1.87950
H          4.90880        1.62320        1.44690
