13
7129	1
C          1.48730        0.90480        0.65340
C          2.35240        0.09970        0.01540
C          3.09540       -1.01520        0.69060
C          2.76010       -2.28060        0.04750
C          2.46810       -3.32080       -0.47810
C          4.52960       -0.79610        0.55790
C          5.71070       -0.61560        0.43820
H          0.98030        1.69760        0.10600
H          1.26610        0.79850        1.70990
H          2.53150        0.25510       -1.03910
H          2.84560       -1.08100        1.75870
H          2.21650       -4.23270       -0.93970
H          6.74600       -0.44860        0.33830
