17
7155	1
C          2.09150        1.54470       -0.43420
C          2.55080        0.14380       -0.03390
C          3.06260       -0.64210       -1.21670
C          2.12060       -1.00090       -2.35320
N          1.93650       -2.44760       -2.45050
N          4.30600       -0.99050       -1.23540
O          4.82910       -1.65020       -2.24740
H          1.74270        2.09050        0.46770
H          1.25330        1.50560       -1.15960
H          2.93580        2.10850       -0.88540
H          1.71180       -0.41000        0.43930
H          3.35990        0.25590        0.72140
H          2.50620       -0.59110       -3.31240
H          1.12270       -0.55080       -2.16710
H          2.82290       -2.91070       -2.74910
H          1.22660       -2.64030       -3.19390
H          5.76380       -1.89510       -2.23330
