10
7106	1
O          1.52440       -0.86960        0.01500
C          2.28910        0.09200        0.01000
C          3.04890        0.52250       -1.20750
C          2.72510        1.92830       -1.61850
O          1.87070        2.62350       -1.08040
C          4.46860        0.42710       -0.96160
N          5.60020        0.35110       -0.76530
H          2.45510        0.68310        0.92900
H          2.76180       -0.12950       -2.04000
H          3.28310        2.31300       -2.49210
