9
7107	1
O          1.45010       -0.67740        0.48080
C          2.24310        0.11620       -0.02120
C          2.98250       -0.15710       -1.29690
C          2.63370        0.85290       -2.26820
N          2.35560        1.65790       -3.04240
C          4.40220       -0.10600       -1.03800
N          5.53390       -0.06520       -0.83170
H          2.44110        1.08880        0.46610
H          2.69430       -1.15060       -1.65660
