17
7156	1
C          1.71390        0.91860        1.10240
C          2.33880        0.09480       -0.02220
C          3.00950        0.96850       -1.05480
C          2.17320        1.93090       -1.87390
O          2.26120        1.59400       -3.23070
N          4.29070        0.85610       -1.21680
N          5.01930        1.60640       -2.11480
H          1.25050        0.23660        1.84620
H          0.92520        1.59700        0.71740
H          2.49440        1.52250        1.61270
H          1.55970       -0.52500       -0.51530
H          3.08690       -0.59040        0.43450
H          2.53930        2.96740       -1.70200
H          1.10740        1.87010       -1.56490
H          1.75320        2.29100       -3.72160
H          6.03380        1.45090       -2.19460
H          4.59030        2.34720       -2.68590
