17
7178	1
C          1.83940        0.84050       -0.15960
N          1.83990        0.17850        1.12580
C          3.02770       -0.40890        1.66260
C          2.99260       -1.09540        3.02070
O          1.71380       -1.07090        3.59540
N          4.12660       -0.34920        0.97730
C          5.39020       -0.90480        1.41080
H          0.82220        1.22350       -0.38800
H          2.13770        0.12440       -0.95430
H          2.54770        1.69580       -0.14480
H          0.95610        0.13680        1.65320
H          3.72540       -0.62160        3.71290
H          3.29140       -2.15790        2.90310
H          1.61520       -0.18640        4.03600
H          6.15590       -0.71050        0.63210
H          5.30270       -2.00300        1.55060
H          5.72090       -0.42350        2.35550
