14
7213	1
C          2.52110        0.74050        1.10750
N          1.99610       -0.12020        0.07140
C          2.85300       -0.91980       -0.74270
N          2.29250       -1.75640       -1.75470
O          0.96690       -1.79220       -1.95290
N          4.13050       -0.88060       -0.55750
O          4.95630       -1.60220       -1.28590
H          1.68850        1.27000        1.61740
H          3.20450        1.49450        0.66280
H          3.07250        0.13590        1.85830
H          0.97670       -0.15100       -0.07620
H          2.90050       -2.33290       -2.35490
H          0.64920       -2.55930       -1.41120
H          5.90840       -1.55470       -1.12710
