15
7287	1
C          2.85660        0.23110       -1.07570
O          2.39280       -0.64040       -0.11330
C          3.15160       -1.33330        0.78740
C          2.53840       -2.14990        1.66700
C          1.04640       -2.33910        1.70800
C          4.64040       -1.22850        0.84440
O          5.26430       -0.51030        0.08110
H          1.99230        0.62970       -1.64520
H          3.52550       -0.29860       -1.78680
H          3.38310        1.08640       -0.60140
H          3.13170       -2.70630        2.38820
H          0.50960       -1.73990        0.94360
H          0.67090       -2.04350        2.70950
H          0.81210       -3.41050        1.53870
H          5.19070       -1.80410        1.58290
