14
7277	1
C          2.94280       -1.29050       -0.00360
N          2.36850        0.02430        0.17050
C          3.15930        1.15050        0.57590
N          2.62840        2.26410        0.94410
C          1.21910        2.51090        0.97000
C          4.56820        1.05690        0.59950
N          5.71500        0.97790        0.61780
H          2.17440       -1.98110       -0.39060
H          3.28540       -1.67700        0.97440
H          3.78580       -1.28750       -0.71190
H          1.35860        0.05650        0.31500
H          1.03560        3.55220        1.25810
H          0.72710        1.85310        1.70250
H          0.79050        2.35010       -0.03300
