15
7227	1
C          2.43720        0.34850       -0.90950
O          2.05920       -0.06810        0.35080
C          2.93660       -0.40700        1.33440
N          2.41000       -0.82370        2.59960
N          1.03580       -0.88250        2.80230
N          4.21420       -0.34110        1.09900
N          5.20650       -0.66040        2.00160
H          1.52860        0.55950       -1.50990
H          3.02300       -0.44760       -1.41720
H          3.04310        1.27730       -0.84120
H          3.01760       -1.08400        3.38260
H          0.62710       -1.55080        2.10970
H          0.63620        0.07090        2.64470
H          6.19090       -0.56480        1.71560
H          5.01410       -1.00940        2.94650
