14
7262	2
C          1.00440        0.16830       -0.15970
C          2.46590       -0.20600        0.08240
C          2.64700       -1.69430        0.27000
C          2.04410       -2.39010        1.44040
O          1.42010       -1.76630        2.28370
N          3.35150       -2.34510       -0.59370
O          3.55740       -3.64150       -0.48520
H          0.92500        1.26510       -0.31360
H          0.36630       -0.10550        0.70480
H          0.62400       -0.34580       -1.06810
H          2.85250        0.32870        0.97630
H          3.05080        0.13370       -0.80110
H          2.16900       -3.46040        1.56670
H          4.08910       -4.10350       -1.14690
