14
7281	2
N          1.17040        0.78450        0.31640
N          2.52450        0.98160        0.47370
C          3.37420        0.09490        0.89810
N          2.97420       -1.19760        1.39210
O          1.69890       -1.49550        1.67540
C          4.81240        0.49120        0.87710
C          5.82730       -0.27360        1.30300
H          0.57550        1.59430        0.09280
H          0.77790       -0.14680        0.13490
H          3.68520       -1.89440        1.64280
H          1.58100       -1.23610        2.62510
H          5.05640        1.47700        0.48940
H          5.69130       -1.26510        1.70900
H          6.84080        0.11050        1.24550
