11
7251	1
O          2.50950        0.39140       -1.33820
C          2.29080        0.11910        0.01840
C          2.83400        1.25370        0.85370
C          2.02950        2.05600        1.58140
F          0.68980        1.87610        1.59830
C          4.25790        1.46310        0.88690
N          5.39990        1.64100        0.92160
H          2.11910       -0.37010       -1.84240
H          2.80900       -0.82280        0.30170
H          1.20620       -0.02260        0.19580
H          2.41390        2.87520        2.18200
