17
7273	1
C          1.70410        0.53550       -0.16320
N          1.64410       -0.74100        0.51450
C          2.83340       -1.40550        0.95600
C          2.75910       -2.73440        1.66040
C          1.61920       -3.38720        1.92580
N          3.97850       -0.83570        0.73500
C          5.26530       -1.37530        1.11690
H          0.67900        0.87720       -0.42020
H          2.29280        0.43940       -1.10000
H          2.17680        1.29290        0.49730
H          0.71740       -1.15550        0.66870
H          3.67700       -3.21310        1.98320
H          0.64430       -3.01100        1.65350
H          1.66200       -4.34260        2.43920
H          6.06050       -0.67070        0.79840
H          5.43950       -2.35030        0.61380
H          5.32260       -1.49220        2.22020
