16
7211	1
C          1.84400        1.49010        0.99050
N          1.60870        0.17440        1.54160
C          2.67650       -0.74670        1.76240
N          2.39100       -2.03670        2.31080
O          1.13080       -2.38350        2.60960
N          3.88840       -0.39790        1.46210
C          5.05090       -1.23870        1.63870
H          0.88340        2.04050        0.90180
H          2.29930        1.40170       -0.01850
H          2.52360        2.06310        1.65620
H          0.64290       -0.09620        1.77790
H          3.14050       -2.72360        2.47300
H          1.02680       -2.16200        3.57040
H          5.95100       -0.68580        1.30030
H          4.95560       -2.16160        1.02760
H          5.18020       -1.49700        2.71150
