17
7208	1
C          2.44110        1.23560       -0.27490
N          1.99820        0.02250        0.37780
C          2.93820       -0.87340        0.98920
N          2.50960       -2.07000        1.68110
N          1.17620       -2.41700        1.90750
N          4.20140       -0.58950        0.89720
C          5.27610       -1.38410        1.44900
H          1.56870        1.78360       -0.69060
H          3.13500        0.98860       -1.10620
H          2.95700        1.89220        0.45750
H          0.99170       -0.16940        0.36690
H          3.22280       -2.71530        2.04750
H          0.50100       -1.70840        1.56890
H          1.04400       -2.49370        2.94160
H          6.24280       -0.89190        1.21740
H          5.28330       -2.39690        0.99220
H          5.17510       -1.45550        2.55300
