14
7195	1
C          2.65080       -1.17360        0.08540
O          2.29130        0.13590       -0.16620
C          3.14520        1.15140       -0.48760
C          2.54750        2.51580       -0.72470
O          1.89720        2.96060        0.43460
C          4.47900        0.95820       -0.59550
F          5.31460        1.98210       -0.91720
H          1.73860       -1.76020        0.31810
H          3.33430       -1.22440        0.95970
H          3.13640       -1.61860       -0.80930
H          1.83360        2.46790       -1.57830
H          3.30950        3.27370       -1.00240
H          0.99490        2.54610        0.43610
H          4.91920       -0.01790       -0.42800
