14
7216	1
N          1.78080        1.08710       -0.20300
N          1.68740        0.07930        0.75800
C          2.49990       -1.10070        0.71940
N          2.37780       -2.08710        1.74960
N          1.50290       -1.90560        2.81570
N          3.33640       -1.27270       -0.24900
O          4.09930       -2.34310       -0.32300
H          0.85320        1.15980       -0.67820
H          2.50060        0.86670       -0.92590
H          1.00530        0.19760        1.52040
H          2.93970       -2.95130        1.70450
H          1.82980       -1.07680        3.36310
H          1.56670       -2.74180        3.44050
H          4.71670       -2.44660       -1.05930
