15
7324	1
C          0.98460        0.00280        0.83760
C          2.42510        0.08850        0.40710
C          2.90440        0.26810       -0.85850
C          2.08670        0.55730       -2.08180
C          0.90540        1.18930       -2.10570
C          4.37240        0.16530       -1.08590
O          5.14520       -0.07400       -0.17010
H          0.85840       -0.94410        1.40270
H          0.24960       -0.07260        0.02220
H          0.74260        0.84720        1.51550
H          3.13980       -0.06730        1.21050
H          2.52380        0.30510       -3.04420
H          0.42650        1.57580       -1.21890
H          0.42290        1.37750       -3.05950
H          4.77240        0.30530       -2.08540
