13
7330	1
C          1.05530       -0.12490        0.28540
C          2.52880        0.12530        0.08590
C          3.08300        0.97390       -0.82140
C          2.26900        1.79320       -1.76640
O          2.81710        2.53980       -2.56230
C          4.56740        1.10200       -0.88660
O          5.29260        0.45990       -0.14190
H          0.85310       -1.20410        0.12420
H          0.37940        0.44110       -0.37560
H          0.78980        0.13050        1.33220
H          3.18610       -0.43850        0.74180
H          1.19090        1.75330       -1.77640
H          5.02310        1.77520       -1.60530
