13
7307	1
N          2.59380        0.82560       -1.28950
C          2.42040        0.07680       -0.04700
C          2.96200        0.87230        1.14820
N          2.21860        1.39110        2.03600
O          0.93210        1.29020        1.98090
C          4.35750        1.04190        1.31140
C          5.54120        1.18170        1.44360
H          2.25440        0.25340       -2.08650
H          3.60430        0.97590       -1.46660
H          2.97250       -0.87930       -0.11040
H          1.35260       -0.17450        0.07160
H          0.49330        1.79340        2.65290
H          6.58100        1.32320        1.58910
