16
7387	1
N          1.21030       -0.38830        1.29500
C          2.22160        0.08570        0.35060
C          2.99570       -1.04790       -0.37260
C          4.03620       -0.62100       -1.41200
F          5.04330        0.09880       -0.79650
C          3.21920       -2.33570        0.27990
N          2.20830       -2.20280       -0.81740
H          0.67920        0.43980        1.64910
H          1.68300       -0.81940        2.12080
H          2.94860        0.73270        0.88940
H          1.72340        0.70650       -0.42520
H          3.55040        0.01850       -2.17860
H          4.48680       -1.49520       -1.93030
H          2.68630       -2.63450        1.20770
H          4.03530       -2.98500       -0.10180
H          1.25700       -2.18910       -0.38440
