10
7352	1
F          0.95670       -0.14720        0.08580
C          2.31640       -0.10830        0.08320
C          2.97500        1.05800        0.00490
C          2.23800        2.34050       -0.08120
O          2.84120        3.40020       -0.15230
C          4.38100        1.05800        0.00490
C          5.57110        1.05800        0.00490
H          2.86290       -1.04600        0.14610
H          1.15250        2.35090       -0.08190
H          6.62940        1.05800        0.00490
