17
7297	1
C          2.34310        0.20530       -1.55760
C          2.47680        0.04680       -0.04960
C          2.98600        1.30770        0.61090
C          2.19790        2.25840        1.14980
C          0.70350        2.30090        1.16460
C          4.40310        1.48750        0.70100
C          5.59240        1.63450        0.77450
H          1.97960       -0.72620       -2.00340
H          3.30600        0.44630       -2.02020
H          1.63360        0.99990       -1.81150
H          3.16170       -0.78330        0.16680
H          1.51300       -0.25800        0.37270
H          2.67080        3.11870        1.62420
H          0.23910        1.50850        0.57350
H          0.36150        3.25700        0.75540
H          0.34010        2.22170        2.19370
H          6.64720        1.76580        0.84020
