12
7321	1
C          2.84690        1.15580        0.44170
O          2.21510        0.13230       -0.26940
C          2.96950       -0.82590       -0.91230
N          2.41710       -1.76210       -1.56650
O          1.12540       -1.82100       -1.62760
C          4.38800       -0.78330       -0.86400
C          5.58690       -0.75050       -0.82510
H          2.09760        1.81500        0.88910
H          3.48120        1.77060       -0.22830
H          3.46730        0.74340        1.26310
H          0.82680       -2.56100       -2.14030
H          6.64700       -0.76240       -0.80690
