20
7381	1
C          1.10880        0.09890       -0.82520
C          2.54470        0.06920       -0.30950
C          2.61050       -0.38860        1.16830
C          1.90540        0.42600        2.27180
C          2.42080        1.86110        2.34040
C          2.73210       -1.82440        1.40380
N          3.90750       -0.92200        1.60220
H          1.10290        0.41870       -1.88860
H          0.49600        0.81780       -0.24280
H          0.65510       -0.91260       -0.75450
H          2.99090        1.08080       -0.40660
H          3.12720       -0.61580       -0.96450
H          2.06910       -0.04310        3.26750
H          0.81150        0.43660        2.08300
H          3.51160        1.86770        2.55000
H          1.89830        2.40340        3.15650
H          2.22560        2.39710        1.38870
H          2.95340       -2.51700        0.56090
H          2.45540       -2.23090        2.39940
H          4.54560       -1.02920        0.77960
