10
7335	1
N          0.98600       -0.11310        0.16350
C          2.40600       -0.06690        0.11830
C          3.07330        0.77490       -0.69500
C          2.39350        1.70580       -1.56940
N          1.90950        2.43890       -2.31730
C          4.47930        0.77490       -0.69500
N          5.63030        0.77490       -0.69500
H          0.52080       -0.77360        0.80200
H          0.40430        0.49810       -0.42730
H          2.96480       -0.73770        0.76720
