18
7374	1
C          4.11610       -0.56240        0.71140
N          3.20880       -0.54070       -0.43660
C          3.50680        0.60240       -1.32070
C          4.79140        0.53840       -2.16620
O          4.79510       -0.61490       -2.96270
C          2.29520        1.04420       -2.12350
C          2.85580        1.93450       -0.99430
H          3.85900       -1.42110        1.36680
H          4.02560        0.37360        1.30480
H          5.16680       -0.69650        0.38060
H          2.23000       -0.49580       -0.06570
H          5.69300        0.56790       -1.51540
H          4.87470        1.42260       -2.83450
H          5.09040       -1.36290       -2.38060
H          1.26760        0.79170       -1.78540
H          2.42330        1.65770       -3.04070
H          2.40890        1.85720        0.01990
H          3.59690        2.72560       -1.23780
