17
7457	1
C          2.80690        4.00040       -0.08730
O          2.89900        3.31570        1.14190
C          3.28300        1.97340        0.91600
O          4.65240        1.88350        0.57300
C          5.45190        2.04650        1.72580
C          6.92150        2.09120        1.31740
O          7.16980        3.19120        0.48370
H          2.54730        5.05830        0.12220
H          1.99270        3.58400       -0.72070
H          3.78080        4.00780       -0.62530
H          2.67100        1.49780        0.11600
H          3.04130        1.36500        1.81740
H          5.31550        1.18280        2.41500
H          5.21620        3.00020        2.25180
H          7.21970        1.14170        0.81620
H          7.55190        2.19090        2.22630
H          6.91520        2.91770       -0.43610
