20
7416	1
C          0.98180       -2.28700        0.06100
O          2.38720       -2.38330        0.09120
C          2.92140       -1.23250        0.71060
C          4.44990       -1.33720        0.75700
C          4.97090       -2.57220        1.51750
C          4.59060       -2.60280        3.00560
N          5.10110       -1.42620        3.70310
H          0.58090       -3.19650       -0.43150
H          0.64810       -1.41500       -0.54430
H          0.55570       -2.25910        1.08860
H          2.53270       -1.11380        1.74630
H          2.67030       -0.32180        0.11990
H          4.86460       -0.41380        1.21620
H          4.82540       -1.39290       -0.28810
H          6.07990       -2.58440        1.43900
H          4.59000       -3.49520        1.02950
H          5.01700       -3.52100        3.46720
H          3.48770       -2.65370        3.12110
H          6.14630       -1.42820        3.66020
H          4.82440       -1.49120        4.70940
