15
7397	1
N          1.74020        1.18840       -0.32670
C          2.51170        0.02940        0.10660
C          3.16070       -0.65860       -1.09920
C          4.15040        0.11090       -1.97420
F          5.25570        0.46080       -1.22140
C          3.27790       -2.13210       -1.06680
O          2.27760       -1.45630       -1.82700
H          1.33220        1.65070        0.51730
H          0.94680        0.86310       -0.92480
H          1.84650       -0.66950        0.66050
H          3.31490        0.36020        0.79810
H          3.66860        1.03210       -2.36180
H          4.48600       -0.49800       -2.84120
H          2.74960       -2.70500       -0.27610
H          3.94570       -2.64150       -1.79270
