19
7414	1
C          0.78800       -2.04460        0.86650
N          2.22840       -2.26280        0.73370
C          2.97550       -1.06110        1.12400
C          4.48930       -1.29850        1.01370
C          5.01010       -2.45840        1.88280
C          4.81810       -2.23650        3.38480
F          5.46700       -1.08370        3.78960
H          0.24760       -2.96730        0.56750
H          0.45230       -1.21040        0.21180
H          0.52640       -1.81960        1.92280
H          2.43590       -2.48400       -0.26850
H          2.71780       -0.76920        2.16450
H          2.70390       -0.21210        0.45690
H          5.02280       -0.36300        1.28920
H          4.73240       -1.52460       -0.04740
H          6.09840       -2.57400        1.68790
H          4.50910       -3.40500        1.58610
H          5.24560       -3.09890        3.93840
H          3.74250       -2.16680        3.64550
