18
7392	1
C          2.65170        0.31830        1.43970
C          2.10940        0.32380        0.01330
C          3.17040       -0.13280       -1.00160
C          4.45510        0.68110       -1.21470
N          4.13200        2.05410       -1.58630
C          3.21470       -1.57220       -1.34180
O          2.61660       -0.59850       -2.19510
H          1.85400        0.64420        2.13970
H          3.50730        1.01820        1.53770
H          2.97930       -0.70400        1.72410
H          1.77280        1.34970       -0.24710
H          1.22120       -0.34500       -0.02740
H          5.09150        0.22480       -2.00660
H          5.04140        0.68380       -0.27190
H          3.64240        2.05060       -2.51050
H          5.02530        2.58460       -1.70220
H          2.40070       -2.24060       -0.99150
H          4.09640       -1.97800       -1.88070
