18
7448	1
C         -0.89710       -1.39910        0.26130
C         -0.15720       -0.12870       -0.14690
C          1.25580       -0.44540       -0.64580
O          1.94490        0.75040       -0.96230
C          1.80820        1.08550       -2.33140
C          2.97300        0.52300       -3.14050
F          4.17060        1.00490       -2.64380
H         -1.91500       -1.13810        0.61990
H         -0.35340       -1.91660        1.08030
H         -0.99080       -2.08650       -0.60630
H         -0.09340        0.55160        0.72980
H         -0.73320        0.38030       -0.94900
H          1.22540       -1.16650       -1.49660
H          1.82240       -0.95620        0.16180
H          1.81460        2.19270       -2.41550
H          0.83690        0.75450       -2.76800
H          2.87180        0.83150       -4.20230
H          2.97790       -0.58590       -3.09180
