15
7389	1
O          1.85390       -0.20510       -1.52620
C          2.13110        0.02650       -0.17090
C          2.70790       -1.22180        0.53460
C          3.06130       -1.09730        2.01840
F          1.91890       -0.82820        2.74910
C          2.33060       -2.54790        0.05730
N          3.69820       -2.00180       -0.21610
H          1.53560        0.65980       -1.89440
H          1.18960        0.31060        0.34860
H          2.87090        0.85210       -0.07520
H          3.78390       -0.26590        2.15660
H          3.52630       -2.02750        2.41130
H          1.80050       -2.67880       -0.91200
H          2.45150       -3.41410        0.74170
H          3.73320       -1.68910       -1.21310
