17
7393	1
C          1.81400       -1.53200       -0.38820
C          2.56030       -0.29900        0.11220
C          3.18520        0.49210       -1.04750
C          4.30160       -0.12450       -1.90080
O          5.36270       -0.54600       -1.08900
C          2.36660        1.55710       -1.66710
O          3.41220        1.83310       -0.73640
H          1.37070       -2.07260        0.47440
H          2.50500       -2.22250       -0.91510
H          0.99750       -1.23180       -1.07890
H          3.36210       -0.61300        0.81400
H          1.84560        0.33960        0.67710
H          4.67390        0.58300       -2.67730
H          3.90240       -1.00420       -2.44600
H          5.85660        0.27260       -0.82170
H          1.41370        1.86130       -1.18550
H          2.67760        1.98720       -2.64210
