19
7449	1
N          2.87390       -1.23360       -1.68090
C          2.36850       -0.63200       -0.44970
C          2.81490       -1.43420        0.77190
O          4.22410       -1.42330        0.84910
C          4.64300       -2.14890        1.98480
C          6.16910       -2.13390        2.06040
N          6.66960       -0.76970        2.20780
H          2.52210       -0.67330       -2.49030
H          3.91810       -1.17770       -1.69300
H          1.25760       -0.62070       -0.48290
H          2.72940        0.41740       -0.36390
H          2.42880       -2.47410        0.66550
H          2.37070       -0.94910        1.67110
H          4.32110       -3.21260        1.90870
H          4.24490       -1.69250        2.92030
H          6.59670       -2.59830        1.14380
H          6.48890       -2.73290        2.94060
H          6.44090       -0.21990        1.34810
H          7.71150       -0.80710        2.28610
