18
7409	1
O          0.76380        0.49040       -0.49660
C          2.14500        0.52550       -0.27040
C          2.46890        1.65940        0.70170
C          3.97480        1.73710        0.98060
C          4.29440        2.87760        1.95550
C          5.79330        2.97420        2.23560
F          6.25290        1.80760        2.82070
H          0.60770       -0.25790       -1.12950
H          2.67670        0.70530       -1.23190
H          2.47580       -0.44100        0.17230
H          1.92390        1.48520        1.65550
H          2.12290        2.62150        0.26350
H          4.51670        1.90990        0.02450
H          4.31580        0.77200        1.41580
H          3.75820        2.71250        2.91560
H          3.95270        3.84180        1.51950
H          5.98520        3.81990        2.92910
H          6.35080        3.15720        1.29230
