21
7460	1
C          1.70580        3.00450       -0.38970
C          2.83240        2.00010       -0.16490
C          3.28410        1.99350        1.30000
C          4.41570        0.98280        1.52170
C          4.86840        0.97560        2.98490
C          5.96380       -0.03670        3.18690
C          7.17440        0.31700        3.62900
H          1.39950        2.98780       -1.45680
H          2.04630        4.03040       -0.13340
H          0.82610        2.74460        0.23690
H          3.68980        2.27060       -0.81920
H          2.47200        0.98750       -0.44960
H          2.42090        1.72600        1.94890
H          3.63980        3.01010        1.57860
H          5.27980        1.24990        0.87350
H          4.05910       -0.03360        1.24200
H          4.01370        0.70260        3.64050
H          5.21330        1.99550        3.26670
H          5.76360       -1.08180        2.96870
H          7.40700        1.35280        3.85680
H          7.94260       -0.43730        3.76470
