18
7456	1
C          2.89660        1.49240       -0.43970
O          2.54240        1.46540        0.92510
C          3.18740        0.38380        1.57010
O          4.57620        0.61360        1.71180
C          4.80830        1.60320        2.69320
C          6.31310        1.80600        2.86650
N          6.92370        2.27450        1.62530
H          2.32250        2.30440       -0.93120
H          2.61730        0.54770       -0.95720
H          3.97540        1.72850       -0.57110
H          3.02710       -0.57220        1.02220
H          2.70160        0.19800        2.55470
H          4.40310        1.28220        3.67990
H          4.35900        2.57670        2.39150
H          6.78890        0.85250        3.18740
H          6.48030        2.56640        3.66060
H          6.84720        1.52940        0.89500
H          7.94140        2.43700        1.80180
