19
7408	1
O          2.90640       -0.73790        1.04700
C          2.25840       -0.14480       -0.04430
C          2.57200       -0.91830       -1.32670
C          4.07220       -0.90350       -1.65180
C          4.36010       -1.67020       -2.94790
C          5.85480       -1.65580       -3.27650
O          6.09540       -2.33970       -4.47590
H          2.66140       -0.19460        1.84050
H          2.59260        0.91080       -0.16020
H          1.15800       -0.17040        0.11910
H          2.01220       -0.44990       -2.16570
H          2.22230       -1.96790       -1.21200
H          4.63790       -1.37370       -0.81770
H          4.41180        0.14970       -1.76550
H          3.80090       -1.20300       -3.78810
H          4.02330       -2.72430       -2.83670
H          6.44880       -2.10830       -2.44950
H          6.20260       -0.60750       -3.39680
H          6.06830       -3.30880       -4.26150
