16
7487	1
F          2.46260        0.48020        2.39180
C          2.09590        1.52810        1.56610
C          2.71870        1.35860        0.17910
C          4.25300        1.33240        0.22240
N          4.78740        2.56710        0.75050
N          4.54650        3.75830        0.10310
C          5.01320        4.86860        0.55160
H          2.41720        2.48710        2.02470
H          0.98950        1.53850        1.47350
H          2.37960        2.18950       -0.47680
H          2.35720        0.40360       -0.25980
H          4.64620        1.17780       -0.80530
H          4.59080        0.48080        0.85250
H          5.36290        2.54260        1.60740
H          4.80750        5.79170        0.02120
H          5.61250        4.89810        1.45720
