16
7453	1
O          1.13490        1.39790       -3.34830
C          0.36720        0.92230       -2.27830
C          1.27900        0.61200       -1.09800
O          0.49450        0.13390       -0.02670
C          1.32930       -0.15730        1.07340
C          0.47550       -0.67290        2.22340
F         -0.18730       -1.82580        1.84240
H          0.49540        1.58260       -4.08430
H         -0.16270       -0.00920       -2.57930
H         -0.37070        1.69680       -1.97020
H          1.80440        1.55270       -0.81300
H          2.01310       -0.16030       -1.42460
H          1.85320        0.76050        1.42570
H          2.06750       -0.95020        0.81360
H         -0.26940        0.09660        2.51810
H          1.12180       -0.89950        3.09770
