14
7577	1
F          0.68830        0.73470        0.96230
C          1.06620       -0.21150        0.04960
C          2.38140       -0.84420        0.49510
O          3.50730       -0.01490        0.26820
C          3.50160        1.15140        1.05630
C          4.74410        1.90470        0.83730
C          5.77170        2.50790        0.63510
H          1.17020        0.27720       -0.92930
H          0.25780       -0.95500        0.00800
H          2.53870       -1.76300       -0.10160
H          2.33040       -1.15120        1.55300
H          3.39970        0.91060        2.12930
H          2.66900        1.81580        0.76610
H          6.64990        3.06470        0.43170
