18
7542	1
N          2.44500       -0.59100       -1.38670
C          1.82360        0.15370       -0.29490
C          2.66290        1.37490        0.07910
O          3.93260        0.95350        0.53080
C          4.70500        2.07810        0.88810
C          6.07890        1.60700        1.26840
C          6.58940        1.82850        2.48370
H          1.82140       -1.39220       -1.63660
H          3.35410       -0.99230       -1.06050
H          1.69920       -0.50610        0.59270
H          0.81800        0.49920       -0.62010
H          2.12160        1.91820        0.88740
H          2.75430        2.02130       -0.82390
H          4.23200        2.61880        1.74050
H          4.82650        2.76900        0.02340
H          6.67220        1.07100        0.53340
H          6.02260        2.36050        3.24170
H          7.58600        1.47300        2.72450
