14
7538	2
F          0.40470       -0.50160       -0.11520
C          1.77830       -0.50750        0.04460
C          2.27580        0.91460        0.27620
N          3.73040        0.91290        0.46960
N          4.19190        2.19950        0.75880
C          4.23190        3.18680       -0.17630
O          3.86360        2.98370       -1.32330
H          2.24530       -0.93010       -0.87060
H          2.03880       -1.14870        0.91330
H          1.78250        1.32120        1.18650
H          1.98820        1.53760       -0.59670
H          4.23710        0.54270       -0.36900
H          4.54920        2.39800        1.70420
H          4.61260        4.16680        0.09330
