15
7544	1
O          1.99220       -3.73030        0.20870
C          1.29050       -2.54190       -0.02710
C          2.27840       -1.41550       -0.30260
O          1.55990       -0.22360       -0.53810
C          2.46430        0.82610       -0.80180
C          1.68280        2.07210       -1.07330
O          1.83040        3.06050       -0.37220
H          1.30510       -4.42550        0.38050
H          0.68350       -2.27860        0.86810
H          0.62770       -2.66500       -0.91300
H          2.87970       -1.69740       -1.19770
H          2.93630       -1.30890        0.59060
H          3.06930        0.61030       -1.71110
H          3.13150        1.00150        0.07380
H          0.97990        2.09920       -1.89970
