16
7581	1
C          1.02790       -0.15210       -0.90480
C          1.95360       -0.04380        0.05370
C          2.90090       -1.17210        0.37250
C          4.37080       -0.74890        0.20890
C          4.74700       -0.32820       -1.22030
C          4.58370       -1.43020       -2.17740
N          4.45740       -2.30030       -2.92980
H          0.35900        0.67840       -1.10710
H          0.92930       -1.06150       -1.48980
H          2.02330        0.87970        0.62070
H          2.69650       -2.06360       -0.26000
H          2.73650       -1.46650        1.43100
H          5.02260       -1.59550        0.51900
H          4.57680        0.10340        0.89270
H          5.81240       -0.01460       -1.23270
H          4.13010        0.53520       -1.54620
