15
7556	2
O          0.13370       -0.24020       -0.44680
C          1.50420       -0.48510       -0.59490
C          2.28180        0.36720        0.39960
O          3.65790        0.11550        0.24340
N          4.29410        0.86060        1.16680
C          4.78560        0.28050        2.36920
N          4.61430       -0.96710        2.62820
H         -0.32210       -0.81850       -1.11220
H          1.82530       -0.21880       -1.62700
H          1.71920       -1.55880       -0.39460
H          1.94790        0.09330        1.42710
H          2.05860        1.43910        0.19340
H          4.47450        1.85870        0.98020
H          5.31630        0.90250        3.08220
H          4.11670       -1.59320        1.97890
