17
7533	2
N          0.44960        0.24880       -0.26500
C          1.88270        0.04420       -0.08180
C          2.66580        0.73420       -1.20010
N          4.10560        0.53610       -1.00470
N          4.82160        1.20310       -2.00240
C          6.24600        1.19100       -2.02510
N          6.93270        0.58000       -1.12470
H         -0.05460       -0.21480        0.52510
H          0.14750       -0.21950       -1.15040
H          2.10670       -1.04590       -0.07720
H          2.19000        0.47470        0.89650
H          2.43250        1.82220       -1.17880
H          2.35610        0.31610       -2.18470
H          4.31550       -0.48650       -1.08970
H          4.33020        1.73010       -2.74260
H          6.76670        1.71470       -2.81990
H          6.49020        0.07200       -0.34620
