17
7489	2
C          0.93850        0.00480        0.03120
N          2.40080       -0.03970        0.00710
C          2.88210       -0.65740       -1.23460
C          4.41590       -0.60260       -1.30850
N          5.05060       -1.31710       -0.21310
C          4.95910       -2.66400       -0.05700
O          4.33340       -3.35070       -0.85020
H          0.60070        0.47810        0.97700
H          0.51030       -1.02020       -0.02410
H          0.55540        0.61580       -0.81420
H          2.72090       -0.61100        0.82380
H          2.48570       -0.09360       -2.10810
H          2.51960       -1.70510       -1.31200
H          4.71990        0.46630       -1.26700
H          4.76740       -1.01930       -2.27740
H          5.61530       -0.78160        0.46300
H          5.46210       -3.14200        0.77740
