18
7490	1
C          0.67960        0.67290        0.55650
N          2.11540        0.48610        0.34470
C          2.70390       -0.29560        1.43740
C          4.19550       -0.52110        1.17890
N          4.78300       -1.30850        2.23800
N          4.79540       -0.83100        3.52950
C          5.31530       -1.51070        4.48850
H          0.25730        1.26050       -0.28560
H          0.48800        1.22440        1.50330
H          0.16100       -0.30960        0.58490
H          2.56680        1.43060        0.31820
H          2.20370       -1.28790        1.50150
H          2.56960        0.24000        2.40460
H          4.72400        0.45460        1.11310
H          4.31870       -1.05610        0.21170
H          5.20840       -2.22190        2.01210
H          5.31100       -1.10920        5.49580
H          5.76010       -2.48490        4.30650
