13
7602	1
C          1.02710       -0.21050        0.13000
N          2.29570       -0.06910        0.01800
O          2.92870       -0.52880       -1.04140
C          4.28470       -0.34110       -1.16790
C          4.79880       -0.96400       -2.46380
C          4.22610       -0.30040       -3.64180
N          3.77240        0.22200       -4.56960
H          0.51810        0.17930        1.00450
H          0.45710       -0.71120       -0.64660
H          4.79890       -0.82380       -0.30860
H          4.51200        0.74790       -1.15520
H          4.55120       -2.04660       -2.49170
H          5.90230       -0.85020       -2.50250
