14
7588	2
N          2.62230        2.75830       -1.80320
C          2.06770        1.61070       -1.65320
N          2.84280        0.44310       -1.39840
C          4.29040        0.45310       -1.28140
C          4.97190        0.82990       -2.60280
C          6.43000        0.74580       -2.45860
N          7.57940        0.67460       -2.34360
H          2.04820        3.59450       -1.98470
H          0.98580        1.52650       -1.70850
H          2.34400       -0.44700       -1.25110
H          4.62370       -0.57150       -1.00150
H          4.59570        1.15010       -0.47060
H          4.71310        1.86330       -2.90830
H          4.65420        0.13010       -3.40420
