15
7622	1
C          1.11680        0.63520        1.05290
C          2.03390        0.23790        0.16530
C          2.79820       -1.04350        0.33510
O          4.17400       -0.73830        0.39950
C          4.91840       -1.93310        0.48900
C          6.36830       -1.58420        0.60350
O          7.16680       -1.97410       -0.23350
H          0.58290        1.56730        0.89870
H          0.89300        0.03980        1.93290
H          2.23350        0.85720       -0.70430
H          2.57340       -1.67630       -0.55300
H          2.47130       -1.56620        1.26400
H          4.76780       -2.56000       -0.42030
H          4.64360       -2.50630        1.40300
H          6.71430       -0.98100        1.43660
