12
7631	2
O         -0.60630       -1.20950       -1.52660
C         -0.10370       -1.58970       -0.48070
C          1.06840       -0.86760        0.12090
O          1.48360        0.21440       -0.68780
N          0.77410        1.29670       -0.31360
C          1.33610        2.23630        0.48090
O          0.69940        3.22500        0.80800
H         -0.50630       -2.46390        0.01990
H          1.91490       -1.58060        0.20170
H          0.82870       -0.55060        1.16310
H         -0.19140        1.42100       -0.65700
H          2.35620        2.11430        0.83160
