13
7646	2
O          3.08990        3.12410        0.25940
C          2.37700        2.24670        0.72170
N          2.90960        1.09010        1.19990
N          4.28280        0.82540        1.15640
C          4.91220        1.26620        2.40310
C          6.34780        0.94820        2.37470
C          7.52820        0.69820        2.33560
H          1.30180        2.39320        0.74540
H          2.27030        0.36580        1.55860
H          4.71950        1.33080        0.34990
H          4.45410        0.75270        3.27520
H          4.79110        2.36420        2.52380
H          8.56440        0.47740        2.30320
