15
7595	1
C          0.72090       -0.45380        1.01610
C          1.59120       -0.02790        0.09580
C          2.66020        0.98150        0.42470
C          4.05990        0.39480        0.19260
O          4.24420       -0.02150       -1.11580
C          4.30120        0.81030       -2.18860
O          4.25950        2.02390       -2.05180
H         -0.03840       -1.18110        0.74730
H          0.75840       -0.08410        2.03630
H          1.52510       -0.41780       -0.91590
H          2.58920        1.30150        1.48760
H          2.50700        1.88100       -0.20610
H          4.18610       -0.48430        0.86040
H          4.83900        1.14030        0.46440
H          4.40920        0.38930       -3.18190
