13
7590	2
O          2.56670       -2.04420       -3.26420
C          2.06870       -0.95910       -3.00570
N          2.74550       -0.02890       -2.28180
C          4.08900       -0.24430       -1.77070
C          5.11710       -0.36980       -2.90280
C          6.46560       -0.53520       -2.34820
N          7.52800       -0.66870       -1.90900
H          1.06230       -0.74190       -3.34940
H          2.27260        0.86090       -2.06340
H          4.10210       -1.14970       -1.12460
H          4.37110        0.63120       -1.14390
H          5.09950        0.54730       -3.52910
H          4.89970       -1.24510       -3.54700
