12
7607	1
C          2.19750       -3.48290        0.74170
N          3.18810       -2.84570        0.23430
O          3.92800       -2.05600        0.98610
C          4.99830       -1.37470        0.45030
O          5.93250       -2.25720       -0.06030
C          6.59850       -3.16990        0.69310
O          6.41070       -3.25170        1.89810
H          1.59470       -4.13050        0.11480
H          1.95560       -3.38060        1.79580
H          5.46530       -0.74180        1.23520
H          4.64140       -0.71060       -0.36540
H          7.31160       -3.83400        0.21750
