15
7627	2
C          1.50400       -1.00060       -0.48560
C          2.41460       -0.15850        0.01270
C          3.10330        0.86170       -0.84680
O          4.48910        0.62250       -0.80440
N          5.07460        1.61230       -1.50480
C          5.70280        2.70660       -0.84780
N          5.70800        2.80290        0.43430
H          1.02510       -1.72580        0.16430
H          1.23130       -0.97400       -1.53620
H          2.66470       -0.21100        1.06830
H          2.86420        1.86380       -0.42410
H          2.73630        0.79990       -1.89750
H          5.11440        1.55400       -2.53360
H          6.18800        3.47550       -1.43970
H          5.25970        2.09530        1.03380
