16
7660	1
O          2.89470        0.66860        1.46270
C          2.48940        0.54940        0.12690
C          2.83790       -0.84150       -0.40730
C          4.34920       -1.10000       -0.38870
C          4.65090       -2.46150       -0.95550
C          5.27250       -3.40060       -0.23500
F          5.52770       -4.61730       -0.78260
H          2.63880        1.58430        1.74690
H          2.99540        1.32040       -0.49670
H          1.38660        0.68300        0.06080
H          2.46630       -0.91920       -1.45290
H          2.31910       -1.60840        0.20930
H          4.72750       -1.01390        0.65400
H          4.86650       -0.33880       -1.01140
H          4.35610       -2.68380       -1.97720
H          5.57890       -3.20600        0.78820
