17
7665	1
N          2.94310        1.67710       -0.29900
C          2.42430        0.35420        0.03650
C          2.96070       -0.71260       -0.93100
C          4.49380       -0.82860       -0.94920
C          5.05250       -1.24490        0.38270
N          5.70670       -2.34410        0.49460
O          6.20190       -2.70840        1.65770
H          2.55760        2.36770        0.38490
H          2.60320        1.94770       -1.25040
H          1.31320        0.36670       -0.01970
H          2.70370        0.10110        1.08080
H          2.61760       -0.46020       -1.95800
H          2.52400       -1.69850       -0.65970
H          4.94660        0.14100       -1.24640
H          4.77130       -1.58340       -1.71790
H          4.91070       -0.60740        1.25090
H          6.69230       -3.53750        1.73600
