17
7621	1
C          0.47550       -1.30900       -2.35190
C          1.56960       -0.97290       -1.66140
C          2.91560       -1.56040       -1.97450
O          3.79430       -0.50930       -2.31050
C          5.08800       -1.02910       -2.54360
C          6.06310        0.05920       -2.91910
C          5.72430        1.35150       -3.01460
H         -0.48160       -0.86490       -2.09850
H          0.52470       -2.02320       -3.16810
H          1.48550       -0.25520       -0.85070
H          2.83310       -2.28380       -2.81860
H          3.26140       -2.08840       -1.05720
H          5.07070       -1.75480       -3.38770
H          5.48310       -1.51650       -1.62390
H          7.09150       -0.22470       -3.12150
H          4.71220        1.69220       -2.82370
H          6.47520        2.08510       -3.28960
