17
7658	1
N          0.98590        0.41770       -0.26780
C          2.44390        0.35890       -0.27220
C          2.92640       -0.91920        0.42010
C          4.45540       -1.00660        0.41190
C          4.90890       -2.27820        1.07750
C          5.69650       -2.26310        2.15770
F          6.08540       -3.43220        2.72980
H          0.68810        1.28840       -0.76430
H          0.64790        0.48500        0.72000
H          2.85510        1.25260        0.24870
H          2.80200        0.36500       -1.32520
H          2.50160       -1.80050       -0.10980
H          2.56440       -0.92560        1.47210
H          4.87600       -0.11550        0.92920
H          4.82500       -1.00860       -0.63610
H          4.58770       -3.23130        0.66690
H          6.03300       -1.32520        2.58870
