18
7672	1
C          1.67560        0.29950       -0.47090
N          3.12630        0.16670       -0.33330
C          3.50240        0.01610        1.07650
C          5.01770       -0.15410        1.20090
C          5.40940       -0.32750        2.63860
N          6.20990        0.51090        3.19750
N          6.58340        0.37380        4.51370
H          1.41660        0.40860       -1.54520
H          1.30720        1.19670        0.07380
H          1.16460       -0.60840       -0.08400
H          3.57020        1.03480       -0.71560
H          3.00410       -0.88420        1.50200
H          3.18390        0.91320        1.65550
H          5.52600        0.73810        0.77230
H          5.34030       -1.05230        0.63200
H          5.01000       -1.16850        3.20050
H          7.22350        1.06090        4.93560
H          6.23170       -0.40700        5.08880
