17
7737	1
N          0.74440       -1.08210        0.03000
N          2.10060       -0.99230        0.23810
C          2.61030       -0.02370        0.91490
C          4.09350        0.05180        1.12640
C          4.42180        0.01650        2.62000
C          5.91100        0.08500        2.82840
C          6.47790        1.07460        3.52520
H          0.36380       -1.86810       -0.51520
H          0.09860       -0.37390        0.41150
H          1.97340        0.74970        1.33790
H          4.46640        1.00020        0.68270
H          4.59510       -0.80040        0.61510
H          4.04830       -0.93240        3.06230
H          3.91060        0.86450        3.12860
H          6.54010       -0.69130        2.40220
H          5.87770        1.86560        3.96460
H          7.55470        1.09510        3.65800
