17
7711	1
C          0.47850        1.12400       -2.37010
C          1.97590        1.21780       -2.37410
C          2.72030        0.58140       -1.44830
O          4.08160        0.64180       -1.41820
C          4.87420        1.34410       -2.30720
C          6.34470        1.16840       -1.94010
O          6.72030       -0.17960       -2.03230
H          0.04920        2.14160       -2.26190
H          0.10050        0.48980       -1.53970
H          0.13740        0.68820       -3.33200
H          2.44320        1.81620       -3.14850
H          2.22370       -0.01030       -0.68550
H          4.62240        2.42630       -2.26080
H          4.71080        0.96960       -3.34170
H          6.54520        1.56490       -0.91810
H          6.97030        1.75560       -2.64510
H          6.45530       -0.61040       -1.17800
