13
7721	1
O          4.29920        4.63280       -0.64920
N          4.67370        3.66770        0.16240
C          5.00820        2.51720       -0.30460
O          5.39010        1.50480        0.51940
C          5.54210        1.61140        1.89180
C          6.73520        2.49330        2.26300
F          7.89450        1.97450        1.71510
H          4.04960        5.49530       -0.29160
H          4.97440        2.33720       -1.37530
H          5.72780        0.59560        2.30040
H          4.60810        2.00080        2.35260
H          6.84140        2.52310        3.36790
H          6.59520        3.53180        1.90070
