15
7710	1
N          0.46800        0.26550       -0.31580
C          1.23070       -0.30520        0.79100
C          2.67590        0.19050        0.77050
O          3.30040       -0.21560       -0.39470
C          4.59400        0.04880       -0.73210
C          5.43000        0.74930        0.04990
F          6.70700        0.97070       -0.35740
H         -0.52020       -0.06810       -0.24210
H          0.85130       -0.08950       -1.22180
H          1.21090       -1.41640        0.73400
H          0.76270        0.00630        1.75010
H          3.20920       -0.23690        1.64790
H          2.68220        1.30070        0.84060
H          4.96380       -0.32700       -1.68060
H          5.11290        1.14750        1.00700
