15
7757	1
N          0.54310        0.88000       -1.12180
N          1.64400        0.12820       -0.78490
C          2.18270        0.21630        0.38050
C          3.38040       -0.61220        0.72210
O          3.07810       -1.42060        1.80080
C          3.93510       -2.29870        2.39410
C          5.20080       -2.47980        1.98750
H          0.11900        1.53570       -0.44770
H          0.13260        0.78930       -2.06150
H          1.77560        0.89260        1.12820
H          4.21790        0.07060        0.98210
H          3.67240       -1.23990       -0.14930
H          3.57450       -2.87940        3.23690
H          5.61850       -1.92940        1.15210
H          5.83310       -3.19540        2.50310
