17
7702	2
C          0.80130        0.48540       -0.48070
C          2.29710        0.19240       -0.41520
N          2.65040       -0.44000        0.83510
N          3.96250       -0.77600        1.07860
C          4.31610       -1.34690        2.17750
N          5.67790       -1.68990        2.42320
N          6.69860       -1.42590        1.50980
H          0.55700        0.96760       -1.45070
H          0.50970        1.17110        0.34330
H          0.22180       -0.45830       -0.39380
H          2.85870        1.14580       -0.51590
H          2.57410       -0.47880       -1.25640
H          1.92250       -0.63760        1.54130
H          3.57250       -1.57610        2.93670
H          5.91530       -2.14610        3.31640
H          6.33020       -0.96850        0.64640
H          7.12360       -2.34070        1.23660
