17
7749	1
C          0.88430       -0.74490        1.96200
C          2.29820       -0.63820        1.47250
C          3.03110        0.46620        1.68230
C          4.45020        0.57470        1.19070
N          5.35620        0.79370        2.29450
N          6.70200        0.94360        2.04880
C          7.53830        1.14150        3.00480
H          0.21010       -0.91460        1.09700
H          0.55560        0.17430        2.49300
H          0.80260       -1.60490        2.65840
H          2.72440       -1.48240        0.93790
H          2.60260        1.30990        2.21670
H          4.51540        1.43250        0.48830
H          4.75870       -0.34640        0.64930
H          4.99580        0.83700        3.26220
H          8.59310        1.25630        2.78130
H          7.20480        1.19640        4.03730
