16
7761	1
C          0.53520       -0.18630       -0.10100
C          2.00010       -0.45600        0.07690
C          2.86710        0.53230        0.34630
C          4.33320        0.26360        0.52430
O          4.71600        0.66480        1.78160
N          5.96990        0.54980        2.16780
C          6.32410        0.92510        3.34190
H          0.22460       -0.51090       -1.11570
H          0.29150        0.89140        0.01690
H         -0.03690       -0.76380        0.65440
H          2.35150       -1.47960       -0.01720
H          2.51390        1.55570        0.44000
H          4.89650        0.84180       -0.23920
H          4.56730       -0.81650        0.39500
H          7.35890        0.82640        3.65050
H          5.59630        1.34200        4.03230
