17
7704	2
C          1.71190       -0.52320        3.07280
C          2.54780       -1.47670        2.23320
O          3.84090       -1.49210        2.69970
N          4.75010       -2.25060        2.12330
C          5.95850       -2.26420        2.56050
N          6.94540       -3.08030        1.94350
C          6.63700       -3.92160        0.80960
H          0.66720       -0.51020        2.69670
H          2.12950        0.50420        3.01170
H          1.70860       -0.85270        4.13360
H          2.53620       -1.14090        1.17340
H          2.11500       -2.49890        2.29630
H          6.23510       -1.64690        3.41130
H          7.90600       -3.06980        2.31690
H          5.85450       -4.65910        1.08750
H          7.54730       -4.47020        0.48750
H          6.27660       -3.29890       -0.03640
