13
7764	1
O          0.26730       -0.45690       -0.57260
N          1.57770       -0.35310       -0.62260
C          2.31690       -1.08980        0.12550
C          3.80680       -0.97010        0.06790
O          4.34510       -2.18070       -0.29640
N          5.64970       -2.32780       -0.40250
C          6.14940       -3.45890       -0.74260
H         -0.28370        0.10050       -1.13820
H          1.86470       -1.80570        0.80740
H          4.18340       -0.67950        1.07210
H          4.10710       -0.19250       -0.66910
H          7.22470       -3.56990       -0.82730
H          5.50510       -4.30920       -0.94730
