14
7752	1
O          0.71140        0.98100        0.89040
N          2.02070        1.09320        0.95050
C          2.75480        0.05360        1.12070
C          4.24820        0.18330        1.18810
N          4.74700       -0.29840        2.45540
N          6.10020       -0.27480        2.70560
C          6.58130       -0.69450        3.82130
H          0.16430        1.76740        0.76210
H          2.29900       -0.92890        1.21580
H          4.54810        1.24650        1.05970
H          4.69510       -0.41470        0.36590
H          4.09190       -0.65750        3.16960
H          7.65180       -0.66390        3.99060
H          5.93080       -1.08110        4.60090
