15
7717	1
N          2.56080        1.07220       -0.34390
C          2.08720       -0.29450       -0.14510
C          2.72740       -0.91670        1.10370
O          4.10880       -0.96820        1.01280
C          4.80500       -1.76160        0.15540
N          4.20690       -2.60920       -0.60450
O          4.89750       -3.37460       -1.42160
H          2.06560        1.47670       -1.17120
H          3.58230        1.05510       -0.56720
H          2.30120       -0.90390       -1.04910
H          0.98520       -0.27590       -0.00020
H          2.32080       -1.93650        1.28020
H          2.45850       -0.28830        1.97930
H          5.88790       -1.68130        0.12900
H          4.44170       -4.01010       -1.98950
