17
7727	1
C          1.11100       -0.01680        0.32410
C          2.60220        0.02800        0.23000
N          3.28680        0.68470        1.09490
O          4.60080        0.72430        1.01370
C          5.33750        1.41290        1.94820
C          6.82270        1.29130        1.61870
N          7.62320        2.00000        2.61160
H          0.67090        0.40600       -0.60250
H          0.74830        0.56940        1.19560
H          0.78110       -1.07020        0.43660
H          3.10170       -0.50190       -0.57670
H          5.14560        0.98800        2.95790
H          5.03790        2.48400        1.94080
H          7.01990        1.71090        0.60700
H          7.10880        0.21680        1.62060
H          7.40610        3.02200        2.56210
H          8.63330        1.87850        2.37040
