16
7716	1
C          0.71330       -0.11450        0.00520
C          2.22600        0.07700       -0.05540
C          2.92590       -0.67730        1.07390
O          4.28990       -0.47810        0.98290
C          5.18920       -1.01850        1.84520
N          4.80870       -1.76580        2.82060
O          5.69170       -2.28220        3.64780
H          0.23400        0.44420       -0.82610
H          0.31380        0.26880        0.96830
H          0.45590       -1.19060       -0.09450
H          2.45770        1.16130        0.02600
H          2.59950       -0.29470       -1.03440
H          2.70100       -1.76390        0.98960
H          2.55850       -0.30130        2.05470
H          6.24570       -0.81090        1.70140
H          5.39920       -2.84290        4.37870
