12
7780	4
O          0.53590        0.74990        1.34630
N          1.77320        1.13420        1.11870
C          2.45580        0.60110        0.16980
N          3.79430        1.00910       -0.08490
N          4.40750        1.98860        0.67450
C          5.68470        2.37810        0.43200
O          6.33600        1.87270       -0.46950
H          0.02780        1.15490        2.06180
H          2.01010       -0.17250       -0.45030
H          4.30370        0.55330       -0.85690
H          3.89500        2.44220        1.44550
H          6.13690        3.15000        1.04660
