16
7708	1
C          0.49200        2.48370       -0.80920
C          0.97280        1.03580       -0.78180
C          2.39060        0.93290       -0.22190
O          2.78520       -0.39200       -0.21500
C          3.99170       -0.85480        0.21830
C          4.95680       -0.05560        0.69930
F          6.13380       -0.59390        1.11200
H         -0.53880        2.52580       -1.22010
H          1.15650        3.09930       -1.45240
H          0.48310        2.90730        0.21770
H          0.95390        0.62790       -1.81590
H          0.28200        0.43640       -0.14970
H          2.40580        1.33320        0.81610
H          3.08200        1.52590       -0.86080
H          4.17870       -1.92270        0.17090
H          4.82310        1.01790        0.76870
