17
7784	1
C          1.37990        4.26430       -1.27950
C          2.72050        3.59180       -1.32230
C          2.84680        2.26660       -1.11240
O          4.04580        1.61900       -1.14280
C          5.27090        2.20830       -1.38910
C          6.34270        1.16070       -1.30580
C          7.13790        0.88380       -2.34370
H          1.38770        5.04430       -0.49020
H          0.55860        3.54810       -1.06200
H          1.18060        4.74420       -2.26010
H          3.58890        4.20800       -1.52830
H          1.95870        1.67640       -0.90820
H          5.47990        2.98200       -0.61910
H          5.25970        2.68780       -2.39350
H          6.47370        0.61500       -0.37600
H          7.03270        1.41150       -3.28680
H          7.90350        0.12050       -2.25020
