12
7771	2
O          0.93090       -0.41400        2.01700
N          2.18340       -0.05250        2.17640
C          2.89690        0.20670        1.15460
N          4.27240        0.53740        1.24210
C          4.99400        0.55400        2.49780
C          6.36300        1.04780        2.27980
N          7.43870        1.43900        2.10730
H          0.37040       -0.63310        2.76810
H          2.44990        0.13220        0.16390
H          4.78790        0.63800        0.35730
H          5.03520       -0.48660        2.87880
H          4.49900        1.20760        3.24400
