12
7792	1
O          0.57600       -0.47020       -0.55590
N          1.35150        0.51720       -0.94840
C          2.51410        0.68050       -0.42320
O          3.32690        1.69970       -0.81170
C          3.04090        2.60010       -1.82330
C          3.02330        1.92290       -3.16460
O          3.80850        2.26150       -4.03570
H         -0.29630       -0.58750       -0.95510
H          2.85670        0.00350        0.35410
H          3.82840        3.38400       -1.82260
H          2.06470        3.09540       -1.63110
H          2.30920        1.13250       -3.36870
