16
7854	2
C          0.92310        0.49130        1.18670
C          2.40070        0.26880        1.14420
N          3.19770        1.09740        1.72240
N          4.56120        0.91470        1.69750
C          5.40720        1.84680        2.34490
N          6.68290        1.67980        2.32430
C          7.57660        2.60850        2.97270
H          0.43450       -0.37610        1.67690
H          0.53610        0.59070        0.15140
H          0.67460        1.41350        1.75460
H          2.79010       -0.59990        0.61960
H          4.97400        0.10290        1.21050
H          4.97180        2.70200        2.85800
H          8.62290        2.26950        2.82770
H          7.36040        2.65040        4.06190
H          7.46280        3.62140        2.53010
