15
7809	1
C          0.18500       -0.22920       -0.29010
C          1.64520        0.05120       -0.08140
C          2.61340       -0.74950       -0.59570
O          3.94700       -0.51810       -0.40760
C          4.45020        0.51730        0.32880
C          5.91530        0.47080        0.35730
C          7.11900        0.43410        0.38000
H         -0.31750       -0.31740        0.69640
H          0.01400       -1.16540       -0.85860
H         -0.27990        0.61470       -0.84150
H          1.88980        0.93220        0.50490
H          2.33820       -1.61550       -1.18440
H          4.07480        0.42920        1.37960
H          4.12570        1.47900       -0.10570
H          8.17670        0.44200        0.42890
