16
7794	1
C          1.08650        0.01510        0.14890
C          2.57690        0.02320        0.03410
N          3.14880        0.63700       -0.93770
O          4.46180        0.64510       -1.04020
C          5.07660        1.30150       -2.07920
C          6.56260        1.12600       -1.96270
C          7.38590        2.17130       -1.83810
H          0.72090       -1.03230        0.11900
H          0.61900        0.58400       -0.68340
H          0.78920        0.47770        1.11280
H          3.17210       -0.49540        0.78110
H          4.79200        2.37700       -2.05560
H          4.74100        0.86720       -3.04530
H          6.97710        0.12230       -1.98110
H          7.00260        3.18690       -1.81660
H          8.45600        2.01050       -1.75630
