14
7850	3
C          2.68750        0.17480       -1.24200
N          2.10920        0.11240        0.08100
C          2.84540       -0.36790        1.19830
N          4.06550       -0.76610        1.05840
C          4.86170       -1.25860        2.13250
N          4.39580       -1.33460        3.32910
O          5.14610       -1.79210        4.30810
H          1.94350        0.57830       -1.96100
H          2.98830       -0.84220       -1.57160
H          3.57610        0.84100       -1.23530
H          1.13680        0.42400        0.22090
H          2.36080       -0.39300        2.17090
H          5.88090       -1.57390        1.92780
H          4.79000       -1.84660        5.20500
