13
7834	1
F          0.92400        0.54630        1.46340
C          2.27790        0.49400        1.36650
C          2.89220       -0.68530        1.22790
C          4.38760       -0.78820        1.11610
C          4.92100       -1.61090        2.25530
C          5.58950       -2.74970        2.04630
F          6.05700       -3.46520        3.10210
H          2.84730        1.41780        1.40330
H          2.29780       -1.59410        1.19340
H          4.86650        0.21430        1.15450
H          4.63400       -1.24790        0.13440
H          4.75910       -1.26810        3.27340
H          5.76610       -3.11520        1.03930
