13
7797	2
N          0.63680        0.90670        1.07680
N          1.79400        0.37040        0.56310
C          1.85150       -0.06200       -0.64940
O          2.99650       -0.59110       -1.15330
N          4.11450       -0.70020       -0.45270
C          5.28210       -1.26310       -1.03500
N          5.28910       -1.68070       -2.25120
H          0.61980        1.24440        2.04910
H         -0.21810        0.97730        0.50380
H          0.97620       -0.00830       -1.29060
H          4.15920       -0.37960        0.52650
H          6.18730       -1.34260       -0.44200
H          4.45270       -1.62460       -2.85000
