11
7800	2
O          0.87710        1.57620       -0.63250
N          2.19070        1.54310       -0.69490
C          2.84770        0.61440       -0.09560
O          4.20410        0.56420       -0.14910
N          4.93620        1.44780       -0.80740
C          6.28200        1.32890       -0.81290
O          6.96800        2.13810       -1.41680
H          0.38930        2.27700       -1.08530
H          2.31620       -0.14840        0.46620
H          4.49420        2.22850       -1.31820
H          6.76000        0.51260       -0.27990
