20
7875	1
C          1.22250       -0.68530       -0.35400
C          2.71520       -0.41100       -0.19770
C          2.96100        0.89320        0.56540
C          4.43840        1.13940        0.71520
C          5.01960        2.23970        0.21240
C          6.49490        2.48760        0.36100
N          7.11090        2.60370       -0.95540
H          1.07400       -1.63450       -0.91020
H          0.73640        0.13730       -0.92020
H          0.73980       -0.77720        0.64190
H          3.17500       -0.34350       -1.20770
H          3.18090       -1.25920        0.35000
H          2.51100        0.82530        1.57890
H          2.47200        1.73190        0.02230
H          5.03650        0.40300        1.24490
H          4.42270        2.97720       -0.31670
H          6.99340        1.67410        0.93460
H          6.63560        3.43950        0.91600
H          7.03290        1.68560       -1.45110
H          8.12790        2.81210       -0.82940
