12
7865	1
N          0.28390       -0.12490       -0.32930
N          1.59320       -0.24500        0.07320
C          2.54180       -0.43550       -0.77900
O          3.83520       -0.55410       -0.38010
C          4.24600       -0.48650        0.91010
N          5.49300       -0.61070        1.18370
O          5.91110       -0.54800        2.42950
H         -0.45310        0.02680        0.37340
H          0.02520       -0.18410       -1.32610
H          2.31630       -0.50450       -1.83950
H          3.53050       -0.32850        1.71460
H          6.85210       -0.64230        2.62890
