14
7840	1
N          0.84120        1.13000       -0.75170
N          2.20840        1.05170       -0.62840
C          2.79220        1.27570        0.49640
C          4.28310        1.18240        0.60380
C          4.84320        2.50530        1.02740
N          5.50710        2.60750        2.12170
O          6.00090        3.76830        2.49490
H          0.40070        0.94580       -1.66380
H          0.24620        1.37120        0.05570
H          2.21100        1.53210        1.37920
H          4.72880        0.90300       -0.37550
H          4.53920        0.39420        1.34450
H          4.68540        3.37910        0.39950
H          6.49960        3.83880        3.31980
