13
7807	2
O          0.63530        0.95320        2.19220
N          1.95220        0.94030        2.23070
C          2.61110        0.41940        1.25870
N          4.03280        0.36750        1.26060
C          4.84850        0.92150        2.32560
C          6.26300        0.60870        2.07040
C          7.40810        0.32670        1.81610
H          0.12490        1.35510        2.90710
H          2.07510       -0.00870        0.41640
H          4.49020       -0.09680        0.46130
H          4.56870        0.47020        3.30060
H          4.71150        2.02330        2.37690
H          8.41380        0.08000        1.59450
