17
7881	1
N          0.89740       -0.07480        0.02790
C          2.32850        0.15550        0.19640
C          3.10110       -0.41850       -0.99330
C          4.58020       -0.19800       -0.81690
C          5.29610        0.50540       -1.71110
C          6.77600        0.73640       -1.56130
F          7.28930        0.15730       -0.41290
H          0.39510        0.34500        0.84300
H          0.71230       -1.10410        0.03860
H          2.67330       -0.32130        1.14170
H          2.51400        1.25030        0.26240
H          2.73220        0.05790       -1.92870
H          2.91680       -1.51180       -1.06350
H          5.06240       -0.62880        0.05550
H          4.80350        0.92860       -2.58200
H          6.97060        1.82830       -1.52650
H          7.29970        0.30780       -2.44100
