12
7810	1
F          2.83230        3.07630       -3.69870
C          3.69560        2.79310       -2.68890
C          3.21380        2.46180       -1.47820
O          4.00500        2.16510       -0.40850
C          5.38470        2.16130       -0.42590
C          5.90370        1.80590        0.89740
C          6.35440        1.51570        1.97810
H          4.76130        2.84370       -2.88910
H          2.14000        2.42890       -1.34060
H          5.75930        3.17220       -0.69290
H          5.74850        1.41180       -1.15920
H          6.75230        1.26500        2.92700
