14
7802	1
F          0.69490        0.11470        0.96020
C          2.05690        0.13770        1.01910
C          2.73570        1.06590        0.33860
C          4.24290        1.15740        0.32980
C          4.72180        2.51920        0.86960
C          6.19250        2.59800        0.83930
C          7.39570        2.66590        0.81610
H          2.54920       -0.62310        1.63090
H          2.18190        1.79270       -0.25370
H          4.59480        1.04020       -0.71860
H          4.69160        0.34400        0.93730
H          4.37260        2.65990        1.91040
H          4.31140        3.34460        0.24970
H          8.45610        2.72670        0.81970
