14
7858	1
C          0.40290        0.06520        0.05510
C          1.88750       -0.03090       -0.13690
C          2.73660        0.73290        0.55950
O          4.06870        0.61350        0.35460
C          4.96960        1.36160        1.03220
C          6.27210        1.20850        0.79610
F          7.18040        1.95740        1.47390
H          0.01170       -0.92160        0.37840
H         -0.07270        0.34500       -0.90770
H          0.12910        0.82360        0.81990
H          2.27560       -0.74090       -0.86160
H          2.35620        1.44690        1.28760
H          4.64160        2.08990        1.77060
H          6.61540        0.48590        0.06210
