14
7795	1
C          0.74430        0.20040        0.15230
C          2.17060       -0.22740        0.02140
N          3.09380        0.38780        0.66760
O          4.35090        0.01210        0.55330
C          5.34060        0.66850        1.24430
C          6.65920        0.03190        0.94260
O          7.55810        0.68340        0.43510
H          0.35530        0.49380       -0.84480
H          0.64870        1.06400        0.84500
H          0.14130       -0.64440        0.54480
H          2.41910       -1.06440       -0.62600
H          5.14680        0.59670        2.33600
H          5.35330        1.74090        0.94840
H          6.82010       -1.01540        1.17690
