11
7863	1
O          0.18850        1.67220       -0.37960
N          1.38310        2.07260       -0.75790
C          2.41360        1.32960       -0.55530
O          3.65600        1.72440       -0.93830
C          3.92730        2.90310       -1.55280
C          5.18160        3.20080       -1.89050
F          5.46050        4.37920       -2.50610
H         -0.58160        2.23520       -0.53470
H          2.29740        0.36530       -0.06880
H          3.13480        3.61290       -1.77580
H          5.98720        2.50520       -1.67640
