15
7951	1
C          1.18310       -0.37300       -0.22350
N          2.62770       -0.17290       -0.11160
C          3.02910        1.11670       -0.68130
C          4.51660        1.27840       -0.52750
C          5.32730        1.45660       -1.58240
C          6.75120        1.59060       -1.40250
N          7.89580        1.69930       -1.26950
H          0.91740       -1.35940        0.21050
H          0.86200       -0.36030       -1.28770
H          0.63600        0.41100        0.34190
H          3.10710       -0.94150       -0.63620
H          2.53430        1.94170       -0.12440
H          2.72240        1.18040       -1.75040
H          4.92900        1.23770        0.47640
H          4.93120        1.49970       -2.59160
