16
7961	2
C          2.08360        1.22550        0.99680
C          2.72730        0.13020        0.15630
N          3.23080        0.68510       -1.08200
C          4.61160        0.60840       -1.41630
C          5.06400        1.12430       -2.56680
C          6.49180        1.04930       -2.92010
O          6.88510        1.52510       -3.97240
H          1.69080        0.79120        1.94020
H          1.24300        1.69250        0.44060
H          2.83430        2.00550        1.24540
H          1.97110       -0.64980       -0.07590
H          3.54490       -0.34030        0.74550
H          2.56930        1.13950       -1.73080
H          5.30600        0.12710       -0.73170
H          4.37410        1.60650       -3.25410
H          7.20160        0.57280       -2.25050
