17
7933	1
C          1.64870       -0.94120        1.32970
C          1.97840       -0.73400       -0.14550
N          2.91380        0.35300       -0.32370
N          3.33020        0.68890       -1.59150
C          4.16370        1.65210       -1.79140
O          4.56960        1.97730       -3.04580
C          4.13760        1.32410       -4.18180
H          0.92960       -1.78040        1.43740
H          1.19140       -0.02140        1.75250
H          2.57170       -1.18530        1.89750
H          1.04210       -0.50640       -0.69900
H          2.41980       -1.66830       -0.55430
H          3.26710        0.87390        0.49570
H          4.55490        2.22020       -0.95220
H          4.61810        1.78310       -5.07010
H          3.03520        1.41920       -4.28360
H          4.42030        0.25040       -4.13830
