17
7931	1
C          0.78390        0.10600       -1.51890
C          1.44870        0.59410       -0.23610
N          2.64760       -0.16290        0.03870
N          2.57290       -1.51940        0.26310
C          3.62540       -2.21490        0.51580
C          3.51370       -3.68930        0.75520
O          4.29000       -4.38760       -0.17830
H         -0.12850        0.70680       -1.71780
H          0.49190       -0.96130       -1.42340
H          1.48140        0.21820       -2.37610
H          0.74260        0.49100        0.61560
H          1.70840        1.66870       -0.35290
H          3.55540        0.32690        0.08240
H          4.60390       -1.74310        0.55810
H          2.45450       -4.03320        0.71100
H          3.89130       -3.91720        1.77350
H          3.77940       -4.38600       -1.03010
