15
7968	2
C          1.12040        0.10720       -0.38270
N          2.56040        0.10430       -0.37350
N          3.23720        0.22910        0.81800
C          4.52310        0.23010        0.86030
N          5.18990        0.36030        2.10230
N          6.56520        0.36070        2.14300
C          7.20080        0.47700        3.25420
H          0.74710       -0.00240       -1.42290
H          0.74550        1.06400        0.03740
H          0.74070       -0.73790        0.22900
H          3.07400        0.00820       -1.26400
H          5.10460        0.13130       -0.05340
H          4.63830        0.45410        2.97030
H          8.28510        0.47410        3.25630
H          6.66780        0.57860        4.19540
