14
7969	3
C          1.38210        0.42560       -0.12450
O          2.72520        0.33960        0.14930
N          3.29020       -0.83120        0.36080
C          4.54600       -0.91120        0.61700
N          5.13790       -2.18740        0.84280
C          6.52150       -2.39990        1.13560
N          7.37640       -1.44080        1.22420
H          1.10570        1.49010       -0.26970
H          0.79510        0.01160        0.72280
H          1.14710       -0.13910       -1.05170
H          5.13190       -0.00160        0.65620
H          4.53060       -3.01920        0.79270
H          6.86730       -3.41670        1.29050
H          7.13930       -0.45110        1.09320
