17
7892	1
C          3.84770       -0.09150       -1.45600
O          2.92190       -0.08690       -0.43150
C          3.21400       -0.00760        0.89740
C          4.47340        0.07890        1.37020
C          4.75130        0.16600        2.84910
C          5.60350       -1.01230        3.32380
O          6.85730       -1.01190        2.69310
H          3.31380       -0.16570       -2.42550
H          4.52520       -0.96670       -1.35900
H          4.43520        0.85140       -1.44870
H          2.38490       -0.01600        1.59830
H          5.31870        0.09070        0.69050
H          3.80380        0.16790        3.43170
H          5.28510        1.11730        3.05940
H          5.06870       -1.97620        3.15490
H          5.76700       -0.92560        4.41880
H          6.77720       -1.58570        1.88700
