18
7942	1
N          0.54300        0.13250       -0.02070
C          1.97370       -0.10370       -0.18520
C          2.76400        0.66830        0.87280
C          4.23760        0.39600        0.72810
C          5.11340        1.38300        0.48940
C          6.55630        1.09520        0.35410
C          7.43230        2.07550        0.12130
H          0.02990       -0.42490       -0.74140
H          0.33890        1.14320       -0.19770
H          2.29090        0.21540       -1.20360
H          2.17420       -1.19230       -0.07460
H          2.44280        0.34260        1.88530
H          2.54670        1.75470        0.77040
H          4.58870       -0.62850        0.82430
H          4.76340        2.40810        0.39460
H          6.91630        0.07380        0.44510
H          7.10460        3.10660        0.02600
H          8.48870        1.84670        0.02540
