16
7907	1
C          4.61120        1.50050        0.37260
N          4.99610        0.13380        0.13330
N          4.33490       -0.60620       -0.81990
C          4.65510       -1.82970       -1.05830
C          3.91580       -2.61350       -2.10260
C          4.86320       -3.08200       -3.20310
F          5.84530       -3.90430       -2.67870
H          5.24770        1.94020        1.16950
H          3.54950        1.53920        0.69490
H          4.73580        2.09270       -0.55810
H          5.76760       -0.28030        0.68040
H          5.46040       -2.30710       -0.50510
H          3.11780       -1.98700       -2.55870
H          3.43960       -3.49530       -1.62360
H          5.33990       -2.20860       -3.69750
H          4.29080       -3.65180       -3.96520
