17
7906	1
C          1.55260        0.66620        0.59990
N          2.93550        0.35880        0.34250
N          3.30340       -0.93100        0.03580
C          4.53140       -1.23980       -0.20170
C          4.93630       -2.65420       -0.53570
C          3.77490       -3.65460       -0.56740
O          2.85960       -3.29740       -1.56640
H          1.44010        1.74710        0.82890
H          1.19270        0.07310        1.46670
H          0.94210        0.42010       -0.29410
H          3.64100        1.11110        0.39000
H          5.30470       -0.47710       -0.16080
H          5.67040       -2.98940        0.22760
H          5.43770       -2.65440       -1.52730
H          3.27440       -3.67080        0.42700
H          4.18910       -4.66310       -0.79010
H          2.13380       -3.97310       -1.52830
