17
7918	2
C          2.27890        0.76760       -1.00840
C          2.91360       -0.27780       -0.10320
N          3.79280        0.36730        0.84430
C          4.44920       -0.30690        1.72160
N          5.30160        0.36060        2.63580
O          6.01210       -0.34380        3.53460
C          5.31460       -0.25890        4.75180
H          1.60320        0.27130       -1.73660
H          3.06580        1.31840       -1.56660
H          1.68810        1.48850       -0.40410
H          3.49150       -0.99680       -0.72470
H          2.11230       -0.82630        0.43910
H          4.35450       -1.38960        1.76940
H          5.41630        1.38470        2.58090
H          5.87610       -0.82960        5.51970
H          4.30540       -0.71990        4.66720
H          5.25020        0.79530        5.10220
