17
7909	1
C          2.01680        0.25930       -2.24430
O          2.96020        0.77450       -1.38960
N          3.91520        1.55930       -1.84400
C          4.81620        2.01310       -1.04970
C          5.90310        2.90630       -1.56960
C          7.27340        2.26720       -1.33880
N          8.33130        3.14800       -1.82290
H          1.30490       -0.36720       -1.66870
H          2.50900       -0.36930       -3.01660
H          1.45830        1.08410       -2.73580
H          4.79750        1.75080        0.00540
H          5.85010        3.88000       -1.03690
H          5.75990        3.08920       -2.65770
H          7.32930        1.28960       -1.86900
H          7.42070        2.09060       -0.25040
H          8.23810        3.25990       -2.85880
H          9.25330        2.69150       -1.63590
