15
8063	1
C          1.37310        0.82450       -0.93600
C          2.13080       -0.08310       -0.31290
C          2.80430        0.21600        0.99690
C          4.28810        0.08460        0.84110
N          4.93870       -0.77740        1.53670
N          6.29890       -0.90050        1.39800
C          6.94820       -1.76180        2.09270
H          0.89940        0.57750       -1.88050
H          1.22070        1.81260       -0.51250
H          2.26280       -1.06320       -0.76280
H          2.42830       -0.49940        1.76020
H          2.57630        1.24670        1.34510
H          4.81000        0.72710        0.13530
H          8.02240       -1.85000        1.97450
H          6.43350       -2.40620        2.80020
