14
8013	2
F          3.41830        0.60330        0.76180
C          2.33900        0.08300        0.06760
C          2.75820       -0.84720       -1.03960
C          4.04530       -1.12670       -1.30620
N          4.37920       -2.01810       -2.37110
C          5.71410       -2.38040       -2.73600
N          6.75670       -1.92960       -2.12870
H          1.75700        0.92220       -0.36640
H          1.69160       -0.47050        0.77900
H          1.97650       -1.30430       -1.63990
H          4.81680       -0.66800       -0.70450
H          3.61340       -2.43530       -2.92190
H          5.85530       -3.06770       -3.56370
H          6.72040       -1.27730       -1.33760
