12
8036	1
C          5.24260       -1.00590       -0.82850
O          5.33830        0.32180       -0.49020
N          4.34130        1.14700       -0.73440
C          4.43190        2.38680       -0.41820
O          3.39550        3.22010       -0.67750
C          3.39940        4.54430       -0.37990
O          4.36460        5.07240        0.15310
H          6.18000       -1.52500       -0.54140
H          5.09330       -1.10830       -1.92440
H          4.39060       -1.47380       -0.29100
H          5.33880        2.75870        0.05500
H          2.52900        5.14480       -0.61990
