15
8055	1
C          1.27450       -0.01500       -0.89950
C          2.28090       -0.30600       -0.06960
C          3.05890        0.76920        0.63570
C          4.50400        0.69190        0.22900
C          5.47390        0.46400        1.12640
C          6.88490        0.39210        0.71060
O          7.75490        0.18370        1.54020
H          0.73170       -0.81450       -1.39310
H          0.98670        1.01420       -1.09160
H          2.54360       -1.34610        0.10170
H          2.93750        0.62650        1.73140
H          2.67670        1.78070        0.37810
H          4.75650        0.82710       -0.82000
H          5.22700        0.32870        2.17610
H          7.16030        0.52330       -0.33150
