16
7994	1
F          3.40550        0.94250        0.60600
C          2.30860        0.22580        0.15810
C          2.70090       -0.98910       -0.63890
C          3.98300       -1.31670       -0.87360
C          4.34620       -2.53640       -1.67410
C          5.15570       -3.47320       -0.82190
C          6.40400       -3.81980       -1.15020
H          1.68480        0.88870       -0.47660
H          1.71030       -0.09540        1.03590
H          1.90480       -1.61490       -1.03240
H          4.78820       -0.69910       -0.48640
H          4.91670       -2.20920       -2.57030
H          3.44050       -3.07740       -2.02420
H          4.71260       -3.87930        0.08310
H          6.87520       -3.43190       -2.04820
H          6.96200       -4.49910       -0.51400
