12
8051	1
O          3.53270        1.73230       -1.33520
C          3.57370        1.10630       -0.08300
C          2.50470        0.06060        0.00390
N          2.81470       -1.16420        0.23250
O          1.87630       -2.08670        0.30950
C          2.18360       -3.38210        0.54880
O          3.34440       -3.73260        0.70020
H          3.95480        1.10590       -1.97990
H          3.39380        1.86950        0.70220
H          4.58520        0.67570        0.10060
H          1.46450        0.34730       -0.12800
H          1.38950       -4.11820        0.60670
