13
8064	1
C          5.81010        0.05590       -0.65860
N          5.65280       -0.65050        0.40090
N          4.59990       -1.52510        0.50420
C          4.44150       -2.23190        1.56510
C          3.29190       -3.18570        1.67220
C          2.42580       -2.80590        2.83270
O          2.25140       -3.58690        3.75450
H          6.64560        0.74340       -0.72880
H          5.11420       -0.02640       -1.48910
H          5.14250       -2.14490        2.39240
H          3.69100       -4.21410        1.80740
H          2.67810       -3.16420        0.74570
H          1.94650       -1.83220        2.85530
