12
8070	3
O          2.35720        0.29870       -0.76670
C          1.95480        0.17780        0.38100
N          2.82080        0.10550        1.42420
C          4.23390        0.16600        1.24140
C          5.05990        0.09140        2.29400
C          6.52070        0.15290        2.11590
O          7.25640        0.08330        3.08660
H          0.88660        0.12750        0.56650
H          2.43610        0.00360        2.37590
H          4.64970        0.27350        0.24200
H          4.65400       -0.01610        3.29630
H          6.95170        0.26010        1.12500
