12
8081	3
C          4.39170       -0.52580       -1.29760
N          4.95520        0.29580       -0.48920
N          4.50650        0.41980        0.80220
C          5.07000        1.24220        1.61190
N          4.59600        1.36060        2.94460
C          5.17640        2.22180        3.81350
O          4.75820        2.31310        4.95670
H          4.75500       -0.61500       -2.31540
H          3.55230       -1.13530       -0.97420
H          5.91000        1.84730        1.27550
H          3.79900        0.78230        3.25350
H          6.01620        2.83740        3.50340
