16
8127	1
C          2.05520       -0.74490       -1.10420
C          2.95210       -0.28510        0.03910
C          3.06510        1.21580        0.04610
C          4.24930        1.83050       -0.08780
C          4.33900        3.30530       -0.07760
C          5.51620        3.92190       -0.21070
F          5.57700        5.27890       -0.19870
H          1.96890       -1.85190       -1.08790
H          2.48710       -0.43520       -2.07990
H          1.03900       -0.30780       -0.99930
H          3.94890       -0.76540       -0.07330
H          2.51370       -0.61480        1.00490
H          2.15890        1.80480        0.16450
H          5.15600        1.24200       -0.20570
H          3.43770        3.90140        0.03950
H          6.43250        3.35090       -0.32920
