14
8143	1
C          3.46720        0.98420        0.89570
O          2.70400        0.25800        0.00310
C          3.19140       -0.58800       -0.94800
C          4.50660       -0.81470       -1.12660
C          4.97400       -1.74150       -2.17280
N          6.23110       -1.94650       -2.32990
O          6.66000       -2.77160       -3.26040
H          2.79430        1.58070        1.54520
H          4.13910        1.68090        0.35030
H          4.06260        0.30100        1.53840
H          2.47620       -1.09830       -1.58670
H          5.24620       -0.32040       -0.50490
H          4.25550       -2.25120       -2.81110
H          7.60810       -2.92170       -3.37370
