12
8108	2
N          0.84570       -0.09300        0.29090
C          2.13090       -0.05630        0.32070
N          2.89300       -0.35060       -0.77310
N          4.25290       -0.33680       -0.76360
C          4.83600       -0.61110       -1.86770
C          6.25100       -0.60410       -1.81970
C          7.45260       -0.59650       -1.77200
H          0.46720        0.15990        1.20850
H          2.68030        0.21150        1.21860
H          2.38000       -0.60710       -1.60260
H          4.30510       -0.85270       -2.82070
H          8.51390       -0.58890       -1.72670
