12
8171	1
F          0.67510       -0.21430       -0.28210
C          2.02420       -0.06570       -0.22580
C          2.82230       -1.07300       -0.58920
C          4.28810       -0.93650       -0.53700
N          5.03400       -1.91940       -0.89180
N          6.40150       -1.80710       -0.84860
C          7.14640       -2.78960       -1.20340
H          2.44030        0.87740        0.11660
H          2.38350       -2.00720       -0.92840
H          4.73650       -0.00450       -0.19860
H          8.22540       -2.68920       -1.16500
H          6.70820       -3.72420       -1.54300
