11
8096	3
O          1.13530       -2.41440       -1.06310
C          2.15080       -1.74120       -0.98740
N          3.36390       -2.32540       -1.10290
N          4.50400       -1.55920       -1.01630
C          5.67330       -2.08480       -1.12200
C          6.86810       -1.23680       -1.02460
O          7.97880       -1.73160       -1.12420
H          2.07250       -0.67010       -0.82670
H          3.42810       -3.34510       -1.25570
H          5.78700       -3.15420       -1.28320
H          6.76820       -0.16790       -0.86380
