15
8142	1
C          3.95300        1.16650        0.07130
O          2.93330        0.32420       -0.32540
C          3.09840       -0.90030       -0.90090
C          4.30710       -1.43780       -1.15280
C          4.42290       -2.76740       -1.77770
N          5.58600       -3.26470       -2.01080
N          5.73080       -4.50230       -2.59240
H          3.51300        2.08810        0.50420
H          4.57900        1.45120       -0.80130
H          4.57770        0.67590        0.84810
H          2.20610       -1.46060       -1.16470
H          5.21740       -0.90320       -0.90100
H          3.52500       -3.32330       -2.03950
H          6.67410       -4.87550       -2.76740
H          4.90860       -5.06600       -2.85770
