15
8101	1
C          1.65280        0.64790        1.05290
C          2.43230       -0.08540        0.24700
C          3.17270        0.46160       -0.93840
C          4.65330        0.26320       -0.79900
C          5.39210       -0.45360       -1.65850
C          6.79540       -0.59740       -1.49570
C          7.98250       -0.72850       -1.37200
H          1.13560        0.19140        1.89140
H          1.51160        1.71290        0.89700
H          2.53540       -1.15130        0.44150
H          2.97610        1.53350       -1.06070
H          2.79430       -0.03280       -1.84120
H          5.13080        0.75300        0.04790
H          4.93340       -0.94240       -2.51280
H          9.03530       -0.84730       -1.26620
