14
8220	1
C          1.01870        0.03290        0.03300
C          2.53900        0.05050        0.03230
C          3.08340        1.47640        0.09210
C          4.55310        1.48180        0.09030
C          5.75460        1.48720        0.08870
C          7.29050        1.49170        0.08670
N          8.45070        1.49460        0.08490
H          0.65170       -0.99740       -0.01010
H          0.61970        0.57200       -0.83220
H          0.62140        0.49730        0.94120
H          2.90460       -0.45410       -0.87070
H          2.90630       -0.52850        0.88870
H          2.71710        1.97680        0.99610
H          2.71470        2.05160       -0.76530
