13
8279	1
N          0.96390        0.01680        0.02020
N          2.33880       -0.00040        0.02550
C          3.01950        1.04490       -0.28350
C          4.45660        0.99640       -0.26910
C          5.64680        0.99640       -0.26910
C          7.09080        0.99640       -0.26910
O          7.57330        2.30500       -0.13930
H          0.44330       -0.83480        0.27170
H          0.44210        0.87040       -0.23240
H          2.52310        1.97240       -0.55770
H          7.47710        0.51940       -1.19760
H          7.45290        0.39430        0.58970
H          7.53280        2.71640       -1.04240
