16
8203	1
N          1.09920        0.02130       -0.00980
C          2.55810        0.02710       -0.00640
C          3.04740       -1.13050       -0.75620
C          3.44790       -2.08140       -1.37690
C          3.93790       -3.23560       -2.13470
C          5.44510       -3.41070       -1.97610
O          5.87760       -4.53600       -2.69340
H          0.77210        0.80020        0.60390
H          0.76480       -0.86690        0.42970
H          2.93800       -0.02020        1.03620
H          2.92790        0.95770       -0.47670
H          3.67780       -3.10580       -3.20210
H          3.41230       -4.14070       -1.76690
H          5.72750       -3.51310       -0.90520
H          5.97150       -2.51790       -2.37450
H          5.47180       -5.32950       -2.25600
