14
8245	1
C          0.90540       -0.03810        0.02730
C          2.42770       -0.04740        0.02520
C          2.92560       -1.42140       -0.02870
C          3.33320       -2.55250       -0.06900
C          3.82910       -3.92300       -0.12210
C          3.16930       -4.62100       -1.22280
N          2.64030       -5.17250       -2.09120
H          0.54140        1.00740        0.06990
H          0.50900       -0.58540        0.90690
H          0.50780       -0.51230       -0.89320
H          2.80750        0.44150        0.94370
H          2.80520        0.51430       -0.85190
H          3.60630       -4.43550        0.83160
H          4.92310       -3.91960       -0.27950
