15
8278	1
C          0.93490       -0.02420       -0.12780
C          2.45690       -0.00710       -0.13110
C          2.93910        1.09090        0.70220
C          3.32420        1.98380        1.40830
C          3.77660        3.04840        2.25100
N          3.44060        3.04820        3.49010
N          3.91780        3.99600        4.36090
H          0.57290       -0.84560       -0.77920
H          0.54010        0.94090       -0.51320
H          0.55070       -0.18660        0.90310
H          2.83250        0.13870       -1.16460
H          2.84750       -0.96770        0.26840
H          4.44260        3.80730        1.84900
H          3.61220        3.97900        5.34320
H          4.65950        4.65230        4.07390
