16
8241	1
N          0.92500        0.02590       -0.03610
C          2.37880       -0.00930       -0.06820
C          2.87280       -0.82650        1.04050
C          3.28090       -1.49880        1.95210
C          3.76720       -2.31030        3.06640
C          4.82780       -3.24330        2.56170
C          6.08260       -3.22180        3.02470
H          0.60320        0.67860       -0.78510
H          0.61120        0.42500        0.88070
H          2.79180        1.02160        0.03070
H          2.72640       -0.44840       -1.03060
H          2.91770       -2.90780        3.46380
H          4.13380       -1.63550        3.87210
H          4.55890       -3.95990        1.78970
H          6.39620       -2.51710        3.78960
H          6.81040       -3.92130        2.62850
