12
8280	1
N          0.86860        0.14910       -0.04070
N          2.24370        0.13930       -0.03690
C          2.91850        1.16360       -0.42050
C          4.35610        1.12350       -0.40550
C          5.54620        1.12350       -0.40550
C          6.99020        1.12350       -0.40550
F          7.45140        2.20410       -1.13250
H          0.35270       -0.68510        0.27160
H          0.34200        0.98000       -0.35200
H          2.41670        2.06650       -0.75870
H          7.36030        0.18390       -0.86500
H          7.36030        1.19510        0.63800
