13
8230	1
C          1.05960       -0.26380       -1.30300
N          2.52140       -0.22450       -1.35190
C          3.01980        1.07210       -0.88460
C          4.46380        1.07210       -0.88460
C          5.65390        1.07210       -0.88460
C          7.06660        1.08700       -0.87990
N          8.22180        1.05500       -0.88820
H          0.70610       -1.25350       -1.66130
H          0.62060        0.52500       -1.95300
H          0.70340       -0.12860       -0.25900
H          2.81900       -0.36930       -2.34600
H          2.67590        1.26370        0.15500
H          2.66000        1.89150       -1.54530
