13
8282	1
N          0.93540        0.05980        0.04390
C          2.39220        0.06020        0.01860
C          2.88420        1.29370        0.62470
C          3.28770        2.30830        1.12630
C          3.78020        3.52330        1.70080
N          3.96190        4.54200        0.94550
O          4.38790        5.67910        1.44670
H          0.59830       -0.81460       -0.41720
H          0.58030        0.87200       -0.51340
H          2.75820       -0.00850       -1.02940
H          2.77980       -0.80090        0.60160
H          3.95510        3.58430        2.77140
H          4.52010        6.43780        0.86360
