15
8189	1
C          1.02890       -0.02480        0.06280
C          2.49180       -0.02450        0.06320
C          3.69740       -0.02380        0.06410
C          5.13840       -0.02290        0.06520
C          5.81570        0.68300        0.97820
C          7.29320        0.68800        0.98470
C          7.97270        1.39100        1.89400
H          0.65900       -1.05360        0.25160
H          0.65900        0.32600       -0.92260
H          0.65870        0.65300        0.85930
H          5.66510       -0.60380       -0.68640
H          5.27480        1.26050        1.72530
H          7.84050        0.11390        0.24190
H          7.45530        1.97500        2.64960
H          9.05780        1.38350        1.88430
