11
8260	1
O          1.24070       -0.66950        0.06490
C          2.21740        0.05290       -0.11850
C          3.01170        0.67570        0.99840
C          4.43130        0.53590        0.77460
C          5.60150        0.42070        0.59020
C          7.10710        0.27210        0.35120
C          8.28660        0.15500        0.16410
H          2.50760        0.35070       -1.14120
H          2.71740        0.20380        1.94150
H          2.73150        1.73290        1.04870
H          9.33340        0.05010       -0.00090
