17
8199	1
N          0.95680       -0.02720       -0.01950
C          2.41580       -0.02260       -0.02740
C          2.95350       -0.84330        1.14580
C          4.39750       -0.84330        1.14580
C          5.58770       -0.84330        1.14580
C          7.03170       -0.84330        1.14580
N          7.53150       -1.44660       -0.08400
H          0.61930        0.52310       -0.84210
H          0.61740        0.45590        0.84430
H          2.78500        1.02610        0.03880
H          2.77360       -0.46580       -0.98340
H          2.59270       -1.89120        1.07030
H          2.59930       -0.40980        2.10520
H          7.40070       -1.41010        2.02800
H          7.38810        0.20630        1.21560
H          7.24560       -2.45290       -0.11620
H          8.57660       -1.41560       -0.06600
