15
8244	1
C          0.92960       -0.10350        0.03230
C          2.44860       -0.06930       -0.01040
C          2.92990        0.74560       -1.10100
C          3.32670        1.41730       -1.99990
C          3.80800        2.23220       -3.09050
C          2.97720        2.02960       -4.32960
O          2.59470        2.94930       -5.04910
H          0.58660       -0.72580        0.86490
H          0.51640       -0.51710       -0.89420
H          0.51420        0.90160        0.16540
H          2.82730       -1.09280       -0.10910
H          2.82520        0.31690        0.94340
H          4.84050        1.96900       -3.34180
H          3.78470        3.29380       -2.82410
H          2.79970        0.98060       -4.62430
