11
8255	1
O          1.14770        0.36250       -0.62970
C          2.15680        0.02780       -0.01440
C          2.95740       -1.20550       -0.33890
C          4.37710       -0.94690       -0.28650
C          5.54720       -0.73370       -0.24340
C          6.96720       -0.47900       -0.20440
O          7.57280       -0.15160       -1.21410
H          2.46980        0.58340        0.88670
H          2.66270       -1.56100       -1.33160
H          2.68120       -1.97410        0.39040
H          7.44820       -0.59800        0.77910
