14
8370	1
O          0.91250        0.12870        0.35640
C          2.24770       -0.04800       -0.03270
C          3.17100        0.92640        0.67320
O          3.66270       -0.06550        1.54460
C          2.93060       -1.05820        0.86740
C          3.87060       -2.01320        0.12670
F          3.13320       -2.88120       -0.65760
H          0.61860        0.98130       -0.05730
H          2.39850       -0.17780       -1.12800
H          2.63840        1.73420        1.22200
H          3.99610        1.27450        0.01240
H          2.22630       -1.58790        1.54810
H          4.45390       -2.60270        0.86480
H          4.57940       -1.45090       -0.51870
