18
8383	1
N          1.07550        0.13600       -0.12980
C          2.53350        0.13200       -0.02700
C          3.13990        1.12930        0.96900
C          4.15560        0.04070        1.33300
C          3.13610       -0.98570        0.82950
C          3.67230       -2.19090        0.10930
C          4.36810       -3.12430        0.76230
H          0.77950        1.03720       -0.56870
H          0.64110        0.08010        0.82000
H          3.05130        0.21260       -1.01250
H          2.45170        1.26110        1.83750
H          3.51480        2.10280        0.58830
H          4.51320       -0.02930        2.38210
H          5.00400        0.10370        0.60990
H          2.44230       -1.24890        1.66380
H          3.49040       -2.30740       -0.95500
H          4.56050       -3.02960        1.82690
H          4.74850       -3.98970        0.22960
