17
8364	1
N          1.15110        0.18340        0.21890
C          2.54620       -0.21840        0.07400
C          2.69600       -1.30610       -1.00230
O          4.02750       -1.76720       -1.03820
C          3.64320       -3.00600       -0.48220
C          2.16970       -2.67390       -0.59820
N          1.54950       -3.38230       -1.72270
H          1.10560        0.97060        0.90520
H          0.60050       -0.60970        0.61820
H          2.94370       -0.57190        1.05290
H          3.14210        0.66480       -0.24320
H          2.34180       -0.96850       -2.00240
H          3.98070       -3.03870        0.57830
H          3.96850       -3.87520       -1.09470
H          1.59450       -2.76350        0.34880
H          2.12270       -3.30190       -2.59560
H          0.61260       -2.95720       -1.90750
