15
8354	1
O          0.86230       -0.09960        0.34440
C          2.23510       -0.13360        0.06860
C          3.05260        0.90980        0.81810
N          3.92720       -0.10340        1.41570
C          2.99350       -1.12470        0.93900
C          3.69210       -2.24930        0.17720
F          2.74850       -3.09850       -0.37090
H          0.53620        0.76620       -0.01300
H          2.51780       -0.19870       -1.00670
H          2.45740        1.41980        1.61320
H          3.60060        1.60740        0.14920
H          3.88150       -0.04170        2.46040
H          2.36880       -1.50120        1.78540
H          4.33320       -2.82610        0.87630
H          4.33040       -1.83930       -0.63460
