13
8301	1
C          0.85880        0.00680        0.07070
C          2.32180       -0.00530        0.07540
C          3.52710       -0.01560        0.07950
C          4.93860       -0.02800        0.08450
C          6.14390       -0.03930        0.08930
C          7.60990       -0.05330        0.09570
O          8.07870       -1.35390        0.31980
H          0.49010        0.51200        0.98710
H          0.48030       -1.03570        0.04570
H          0.49620        0.55340       -0.82410
H          7.99980        0.64840        0.86650
H          7.97920        0.29570       -0.89060
H          8.00990       -1.51780        1.29690
