21
8307	1
C          3.31530       -0.66570       -1.03080
C          2.50740       -0.01440        0.08640
C          2.99910       -0.44840        1.47350
C          2.16220        0.01940        2.67010
C          2.48510       -1.31980        3.33910
C          2.73180       -1.88610        1.93680
C          3.85890       -2.90740        1.79750
H          2.94830       -0.30210       -2.01360
H          3.19930       -1.76840       -1.00310
H          4.39050       -0.40450       -0.93270
H          1.43470       -0.27710       -0.04050
H          2.61100        1.08880        0.00470
H          4.06640       -0.17830        1.66170
H          1.08090        0.01170        2.39370
H          2.44530        0.96010        3.18800
H          1.71630       -1.79700        3.98300
H          3.45910       -1.20950        3.87280
H          1.76270       -2.24810        1.51760
H          4.80170       -2.51590        2.23500
H          4.03180       -3.14240        0.72810
H          3.57840       -3.84220        2.32620
