19
8376	1
C          0.90050       -0.07930        0.15920
N          2.36020       -0.13020       -0.01370
C          3.06580        0.95370        0.68870
C          4.02260       -0.02650        1.35090
C          3.02040       -1.07790        0.89530
C          3.62800       -2.28750        0.17720
N          2.57230       -3.13760       -0.36250
H          0.49060        0.77500       -0.41980
H          0.60080        0.03530        1.22520
H          0.44960       -1.01320       -0.23780
H          2.42070        1.43870        1.46040
H          3.55660        1.68300        0.00900
H          4.19210        0.08410        2.44310
H          4.94360       -0.07620        0.72770
H          2.36050       -1.36910        1.74900
H          4.24700       -2.86940        0.89560
H          4.27950       -1.94540       -0.65680
H          1.99920       -3.51590        0.42660
H          3.01670       -3.94870       -0.85020
