18
8338	1
C          0.91580        0.12630        0.22000
C          2.41430       -0.04980       -0.01860
O          3.17890        1.01590        0.49640
C          3.99110        0.11450        1.21960
C          3.08190       -1.05200        0.89900
C          3.73960       -2.26080        0.22500
N          2.71730       -3.18330       -0.25700
H          0.54370        0.98290       -0.38030
H          0.70490        0.32480        1.29300
H          0.37830       -0.79340       -0.09360
H          2.67280       -0.19560       -1.09290
H          4.02570        0.35050        2.30570
H          4.98660        0.05540        0.72310
H          2.45440       -1.28560        1.78940
H          4.39410       -2.77770        0.96090
H          4.36780       -1.93170       -0.63230
H          2.17170       -3.54670        0.55800
H          3.19190       -3.99710       -0.71050
