18
8328	1
C          2.76460       -1.22630       -0.23460
O          2.36000        0.10050        0.00680
C          2.86770        0.93800       -1.00940
C          2.53090        2.41510       -0.77540
C          3.92820        2.76150       -1.28590
C          4.34650        1.34530       -0.88580
N          5.27440        0.69520       -1.81030
H          2.24130       -1.88520        0.48830
H          3.85390       -1.34960       -0.05650
H          2.47040       -1.57270       -1.25090
H          2.56650        0.67120       -2.05230
H          2.50800        2.61730        0.32270
H          1.64850        2.85340       -1.28820
H          4.46290        3.62500       -0.83670
H          3.87460        2.84000       -2.39770
H          4.68500        1.32930        0.17730
H          4.89240        0.71300       -2.78390
H          5.39120       -0.30300       -1.52640
