12
8288	1
F          1.00020       -0.00580       -0.02180
C          2.35850        0.01130       -0.02090
C          3.03960       -1.13470       -0.08350
C          4.44560       -1.13470       -0.08350
C          5.63580       -1.13470       -0.08350
C          7.04180       -1.13470       -0.08350
C          7.72310       -0.29990        0.70330
H          2.87720        0.96490        0.03120
H          2.50780       -2.07940       -0.13510
H          7.57470       -1.82270       -0.73190
H          7.20750        0.39640        1.35950
H          8.80820       -0.31050        0.69320
