19
8324	1
C          3.07540       -1.11420        0.15990
N          2.27040        0.10100        0.26970
C          3.06400        1.29500       -0.05300
C          2.30070        2.61710        0.09030
C          3.58950        3.23100        0.64080
C          4.01660        1.81440        1.03880
N          5.43800        1.52630        0.85120
H          2.43330       -1.99750        0.36120
H          3.90230       -1.11010        0.90060
H          3.48740       -1.21420       -0.86740
H          1.88420        0.16740        1.24050
H          3.55040        1.26370       -1.05760
H          1.57220        2.54140        0.93270
H          1.83710        3.06740       -0.81290
H          3.51690        4.01010        1.42900
H          4.19890        3.57800       -0.22720
H          3.64280        1.58010        2.06340
H          5.72830        1.73910       -0.13060
H          5.60370        0.51070        1.02730
