16
8340	1
C          0.94040        0.10920        0.13350
C          2.43820       -0.06950       -0.10820
O          3.20020        0.98390        0.43450
C          3.98800        0.07050        1.16880
C          3.09970       -1.09450        0.78900
C          3.79190       -2.25900        0.08040
F          2.83980       -3.12510       -0.42400
H          0.57280        0.98040       -0.44790
H          0.73090        0.28620        1.21030
H          0.39720       -0.80020       -0.19910
H          2.69740       -0.19240       -1.18510
H          3.97190        0.28740        2.25930
H          5.00430        0.02690        0.71550
H          2.45680       -1.37780        1.65280
H          4.42830       -2.80580        0.80710
H          4.43200       -1.89910       -0.75360
