13
8464	1
O          1.73450        0.91280       -0.05390
C          1.91390       -0.29350       -0.01760
C          2.90970       -0.87260        0.94440
C          2.42710       -0.93870        2.42530
C          2.40780       -2.49960        2.39790
C          2.84910       -2.32480        1.01970
O          3.10960       -3.16410        0.17190
H          1.35260       -0.93760       -0.68820
H          3.95600       -0.52830        0.79700
H          1.40270       -0.52860        2.57400
H          3.19790       -0.54940        3.12660
H          1.39950       -2.96580        2.41370
H          3.20470       -2.99820        2.98980
