13
8434	1
O          0.81910        0.01780        0.06220
C          2.21450       -0.02550       -0.04670
C          2.97730        0.94310        0.83590
O          3.82920       -0.08910        1.28810
C          2.90490       -1.05240        0.83140
C          3.52200       -2.18970        0.13100
C          4.01430       -3.12580       -0.45090
H          0.52470        0.71050       -0.58800
H          2.61840       -0.02720       -1.08460
H          2.40060        1.30170        1.72320
H          3.47950        1.76950        0.29080
H          2.31370       -1.39010        1.71380
H          4.42970       -3.98320       -0.91460
