12
8480	1
O          2.81860       -1.05010       -0.22190
C          2.63130        0.09180        0.16880
N          2.99430        1.15010       -0.59540
C          2.89410        2.55960       -0.38830
C          3.58990        2.72760       -1.84920
C          3.55030        1.24450       -1.76260
O          3.90570        0.34350       -2.50680
H          2.17010        0.25810        1.13670
H          3.52970        2.87380        0.46880
H          1.82760        2.87200       -0.34210
H          4.64600        3.07130       -1.85140
H          2.92570        3.06940       -2.67100
