14
8425	1
F          0.84200       -0.08780        0.04260
C          2.22950       -0.07780        0.02370
C          2.89670        0.98090        0.90930
C          3.92580       -0.08050        1.31750
C          2.90920       -1.14320        0.88820
C          3.45120       -2.31270        0.18220
C          3.88150       -3.27610       -0.39980
H          2.66570       -0.03470       -1.00010
H          2.24670        1.20830        1.78850
H          3.26930        1.90650        0.41820
H          4.27490       -0.09100        2.37400
H          4.78310       -0.03800        0.60090
H          2.26740       -1.41990        1.75550
H          4.26110       -4.12020       -0.90970
