16
8454	1
C          2.28430       -1.07400        0.78920
C          2.39310        0.18670       -0.06500
C          3.15980        1.30810        0.66060
N          3.14340        2.62050       -0.05910
C          2.39390        3.23920        1.07670
C          2.42660        1.95180        1.72310
O          2.01970        1.56390        2.80630
H          1.74680       -1.86120        0.21970
H          1.71970       -0.86960        1.72250
H          3.29610       -1.45120        1.04900
H          1.37120        0.53010       -0.34010
H          2.94050       -0.06700       -0.99790
H          4.18470        1.01530        0.97780
H          2.49910        2.58010       -0.88500
H          1.36050        3.55600        0.81610
H          2.99410        3.99270        1.62840
