14
8408	1
C          0.88440        0.09330        0.09370
C          2.40830        0.05270        0.05990
C          3.16180        1.05160        0.90300
O          3.96890        0.03040        1.45440
C          3.09000       -0.95620        0.95570
C          3.77690       -2.02480        0.21990
N          4.31170       -2.86990       -0.36770
H          0.52540        0.98650       -0.45880
H          0.50650        0.13400        1.13710
H          0.48510       -0.81780       -0.39970
H          2.85090        0.04290       -0.96320
H          2.55010        1.48750        1.72760
H          3.72250        1.80110        0.30350
H          2.46230       -1.32670        1.79880
