15
8457	1
C          1.04800        0.26390        0.01560
C          2.54320       -0.04260       -0.02750
C          2.89860       -0.99540       -1.17670
O          4.26410       -1.44610       -1.11270
C          3.87050       -2.81730       -0.90160
C          2.51820       -2.35830       -0.96200
O          1.44170       -2.92790       -0.88260
H          0.83910        0.97540        0.84210
H          0.46230       -0.66200        0.19340
H          0.72210        0.72440       -0.94130
H          2.86030       -0.47630        0.94670
H          3.09420        0.91020       -0.17960
H          2.61270       -0.62510       -2.18570
H          4.13750       -3.19980        0.10670
H          4.12540       -3.48110       -1.75530
