15
8394	1
C          1.09810        0.18110        0.17060
C          2.59890       -0.02400       -0.02880
O          3.36520        0.98360        0.58890
C          4.10640        0.01740        1.30300
C          3.20370       -1.10590        0.84180
C          3.89190       -2.22610        0.11670
O          4.61350       -2.99620        0.72920
H          0.77200        1.08830       -0.37960
H          0.85540        0.31160        1.24710
H          0.54530       -0.69710       -0.22410
H          2.89270       -0.09910       -1.10130
H          4.06110        0.18340        2.40150
H          5.13530       -0.03060        0.87820
H          2.52550       -1.41750        1.66780
H          3.74480       -2.36430       -0.94960
