14
8447	1
C          2.73180       -0.93250        0.22140
O          2.34420        0.42090        0.28000
C          2.79840        1.08570       -0.87870
C          2.45400        2.66670       -0.85230
N          3.85750        2.90290       -0.68550
C          4.16380        1.64350       -0.70300
O          5.27340        1.14590       -0.59730
H          2.38560       -1.43450        1.14800
H          3.83820       -1.04100        0.18840
H          2.24530       -1.45380       -0.63280
H          2.63010        0.57800       -1.85610
H          1.89400        3.01310        0.04440
H          2.11000        3.08320       -1.82440
H          4.43420        3.75070       -0.58650
