15
8410	1
O          0.79810        0.20290        0.25300
C          2.13440       -0.07120       -0.07140
C          3.08930        0.73980        0.78350
O          3.39840       -0.36400        1.60280
C          2.65160       -1.22020        0.77150
C          3.56350       -2.16410        0.02710
C          4.23810       -3.11470        0.67800
H          0.61410        1.11440       -0.09350
H          2.34120       -0.10540       -1.16440
H          2.60010        1.56200        1.35100
H          4.00180        1.03980        0.22110
H          1.84590       -1.75070        1.32770
H          3.67570       -2.07930       -1.05010
H          4.14370       -3.22420        1.75430
H          4.88960       -3.78900        0.13160
