17
8551	1
N          1.04630       -0.50510       -0.31810
C          2.13110        0.29380        0.24020
C          2.91860        0.97630       -0.88870
N          2.29420        2.18750       -1.44100
C          3.49620        2.28090       -0.56700
C          4.67530        2.69550       -1.39570
C          5.87370        2.84780       -0.82980
H          0.53360       -0.96260        0.46990
H          1.45070       -1.26200       -0.91620
H          2.82510       -0.36230        0.80970
H          1.70660        1.03730        0.95110
H          3.40880        0.37140       -1.68260
H          1.45020        2.43990       -0.87640
H          3.22120        2.90090        0.31690
H          4.56170        2.87430       -2.46210
H          6.01080        2.67400        0.23320
H          6.72470        3.14790       -1.43250
