15
8562	1
O          1.90010        1.02910        0.19160
C          2.34910       -0.21250       -0.27140
C          2.88770       -1.01480        0.90860
O          3.70790       -2.06930        0.49300
C          4.35570       -0.97660        1.12380
C          4.84540       -1.41730        2.47000
C          5.48380       -0.56100        3.26870
H          1.51280        1.49280       -0.59560
H          3.13590       -0.06240       -1.04560
H          1.50000       -0.77970       -0.71260
H          2.23000       -1.31630        1.75200
H          5.06990       -0.55840        0.38280
H          4.68240       -2.43890        2.80340
H          5.65770        0.46470        2.95690
H          5.83580       -0.88620        4.24230
