16
8534	1
C          2.27110        1.32560       -0.68150
C          2.52210        0.01670        0.06470
C          3.13210       -1.01570       -0.89070
C          2.95440       -2.48520       -0.51220
C          2.14480       -1.87310       -1.66670
C          2.58570       -2.24730       -3.01870
N          2.92260       -2.52240       -4.09170
H          1.86960        2.08890        0.01740
H          1.53670        1.16840       -1.50020
H          3.21700        1.71230       -1.11980
H          1.56980       -0.33940        0.51740
H          3.24860        0.20640        0.88390
H          4.10940       -0.79630       -1.37100
H          2.32170       -2.69200        0.37850
H          3.82000       -3.11690       -0.80990
H          1.06480       -1.73940       -1.45540
