15
8516	1
O          3.36860       -0.50010       -1.44420
C          2.71110       -0.03880       -0.29400
C          3.12530       -0.80960        0.97600
N          3.11510       -2.28590        0.83120
C          4.38820       -1.54670        0.98610
C          5.01720       -1.80830        2.35200
F          5.98480       -0.85310        2.59850
H          3.06760        0.08510       -2.18710
H          1.61130       -0.14280       -0.42130
H          2.96510        1.03150       -0.13010
H          2.65830       -0.52830        1.94410
H          3.02590       -2.56010       -0.17390
H          5.01860       -1.62310        0.07220
H          5.49490       -2.81010        2.34530
H          4.26850       -1.78340        3.17350
