15
8496	1
F          1.30830        0.05830        1.26210
C          1.57370        0.62010        0.02800
C          2.93140        1.32160        0.07770
C          3.14840        2.24280       -1.12700
C          2.93950        2.82170        0.27650
C          4.17390        3.31710        1.03270
F          4.32760        4.67270        0.81310
H          0.74680        1.31580       -0.23280
H          1.60730       -0.18690       -0.73350
H          3.85400        0.72570        0.24860
H          2.28480        2.60730       -1.72390
H          4.18970        2.47040       -1.44000
H          1.93270        3.22050        0.52920
H          5.10330        2.79590        0.71580
H          4.02780        3.14390        2.11920
