17
8576	1
C          0.58460       -0.48500       -0.61020
C          1.65070        0.36550        0.06840
C          2.63600        0.90830       -0.97820
C          2.48390        2.44720       -1.40680
N          3.46420        1.95060       -0.51240
N          3.47820        2.34160        0.80750
C          4.55900        2.77240        1.34740
H         -0.11650       -0.88440        0.15290
H          1.05310       -1.33770       -1.14640
H          0.01010        0.12990       -1.33580
H          2.20570       -0.25990        0.80030
H          1.14370        1.19100        0.61480
H          3.24510        0.19940       -1.57740
H          1.79860        3.11850       -0.84450
H          3.03320        2.84270       -2.28550
H          4.55750        3.07810        2.38770
H          5.47850        2.83850        0.77200
