13
8575	1
F          1.45020        3.77480        1.38220
C          2.10320        2.59710        1.07260
C          1.85790        2.27480       -0.40860
C          3.06080        2.43690       -1.40230
N          2.56980        1.15870       -0.96460
C          3.36370        0.31790       -0.23290
O          4.21300        0.73440        0.54200
H          1.68590        1.78630        1.70570
H          3.17640        2.74390        1.30780
H          0.80770        2.20920       -0.76200
H          4.08910        2.61940       -1.02040
H          2.87080        2.49860       -2.49350
H          3.27150       -0.75190       -0.38390
