14
8573	1
O         -0.04900        0.96130       -0.04940
C          1.28850        1.37230       -0.07050
C          1.97640        0.71990       -1.27990
C          2.35640        1.63840       -2.49420
N          3.32450        1.12310       -1.56480
C          4.05340        1.96730       -0.77220
O          3.61180        3.04010       -0.38490
H         -0.45970        1.39440        0.74370
H          1.79600        1.02140        0.85530
H          1.31340        2.48090       -0.13470
H          1.93410       -0.38570       -1.37130
H          2.27620        2.74450       -2.41310
H          2.58220        1.18410       -3.48060
H          5.07440        1.70010       -0.52330
