16
8543	1
C          0.85600       -0.89730       -0.96140
N          2.29710       -0.77360       -0.75850
C          2.71830       -1.67180        0.31590
C          3.31260       -2.99500       -0.13700
C          4.23280       -1.84080        0.26870
C          4.97720       -2.25230        1.51250
O          4.39070       -2.47520        2.56090
H          0.53760       -0.20490       -1.76900
H          0.30110       -0.63860       -0.03250
H          0.59920       -1.93280       -1.27320
H          2.50870        0.20970       -0.46910
H          2.42470       -1.41740        1.35840
H          3.04200       -3.11170       -1.20900
H          2.91500       -3.72050        0.60510
H          4.83180       -1.63890       -0.64530
H          6.05760       -2.34170        1.47690
