20
8497	1
C          3.53490       -0.30220        0.91520
C          2.45000        0.10280       -0.07710
C          3.02920        1.00690       -1.17380
C          2.08750        1.99610       -1.83680
C          3.09530        2.46810       -0.77480
N          4.16450        3.22860       -1.41990
C          5.18800        3.56280       -0.43290
H          3.10230       -0.97360        1.68660
H          3.95420        0.59550        1.41760
H          4.35300       -0.84310        0.39280
H          1.62400        0.60540        0.47410
H          2.04010       -0.81220       -0.55510
H          3.90930        0.67850       -1.77020
H          1.05020        1.75420       -1.52000
H          2.37090        2.02310       -2.91130
H          2.48520        2.97600        0.00470
H          3.76450        4.12140       -1.79320
H          5.62550        2.63690       -0.00000
H          4.76200        4.19040        0.38170
H          6.00270        4.13350       -0.92640
