12
8564	1
O          2.92460        1.10860        0.19910
C          2.30100       -0.10700       -0.10490
C          2.96330       -1.21690        0.70400
O          3.08880       -2.42030       -0.00260
C          4.27660       -1.66780        0.19220
C          5.13690       -2.36820        1.15020
N          5.81670       -2.91730        1.90890
H          2.42000        1.80780       -0.29140
H          2.38200       -0.30890       -1.19720
H          1.22710       -0.06820        0.18230
H          2.79890       -1.33250        1.79730
H          4.66770       -1.33460       -0.79150
