16
8561	1
N          1.83190        0.86340        0.10980
C          2.33560       -0.38860       -0.44180
C          2.88360       -1.26570        0.68240
O          3.74950       -2.25420        0.20300
C          4.34490       -1.18910        0.92660
C          4.83190       -1.71370        2.24340
C          5.42090       -0.89760        3.11850
H          1.43510        1.43420       -0.67130
H          2.63070        1.39960        0.52110
H          3.11240       -0.17440       -1.21100
H          1.50160       -0.93260       -0.93490
H          2.22760       -1.64730        1.49410
H          5.05200       -0.68710        0.23240
H          4.70670       -2.76430        2.49280
H          5.55580        0.15580        2.89120
H          5.77090       -1.28340        4.07060
