12
8566	1
F          2.69260        1.15560        0.16370
C          2.39690       -0.15750       -0.14910
C          2.99600       -1.07480        0.91080
O          3.08390       -2.39800        0.46490
C          4.30710       -1.69150        0.59010
C          5.07620       -2.26040        1.73980
O          6.16410       -1.79270        2.03200
H          2.78880       -0.38410       -1.16440
H          1.29470       -0.28630       -0.16030
H          2.67100       -1.02240        1.97200
H          4.76410       -1.66210       -0.42160
H          4.67580       -3.08790        2.31800
