18
8660	1
O          1.14360        0.31320       -0.51860
C          2.41140        0.01720       -0.00250
C          2.97640       -1.22140       -0.70850
C          4.36800       -1.60730       -0.21780
C          4.44840       -3.01150       -0.76150
C          3.08480       -3.53390       -0.33990
N          2.13920       -2.42500       -0.54780
H          0.80850        1.08820        0.00280
H          2.33800       -0.18300        1.09050
H          3.09560        0.87660       -0.18080
H          3.04360       -1.01230       -1.80140
H          4.37950       -1.65600        0.89610
H          5.17710       -0.92720       -0.55980
H          5.30260       -3.61390       -0.38600
H          4.49750       -2.96640       -1.87390
H          3.12880       -3.77020        0.75000
H          2.78680       -4.45380       -0.88530
H          1.52180       -2.36070        0.29630
