16
8673	1
N          2.63780       -1.45820        0.17360
C          2.28530       -0.04590        0.28670
C          3.02200        0.60550        1.46130
O          2.71710        1.98840        1.50180
C          2.50140        2.23370        2.85240
C          1.91050        0.95680        3.34190
O          2.64800       -0.01830        2.67880
H          2.14930       -1.85560       -0.66020
H          2.29080       -1.97250        1.01450
H          1.18550        0.06190        0.41860
H          2.57980        0.47310       -0.65150
H          4.12040        0.49470        1.32480
H          1.81990        3.09220        3.02980
H          3.48650        2.42280        3.33750
H          0.84770        0.87070        3.02010
H          1.98260        0.87250        4.44670
