19
8677	1
C          2.22270       -0.70840       -0.99150
C          2.10230        0.16070        0.01630
C          3.02280        1.34720        0.15110
C          2.27980        2.68070        0.19650
C          3.41350        3.62090        0.57750
C          4.24070        2.83780        1.61080
C          3.75800        1.38430        1.48520
H          1.54470       -1.55270       -1.06180
H          2.99180       -0.58570       -1.74790
H          1.32120        0.00820        0.75600
H          3.76910        1.37080       -0.67890
H          1.52140        2.66760        1.01360
H          1.77900        2.95840       -0.75570
H          3.12550        4.64830        0.88440
H          4.03970        3.71470       -0.34050
H          4.06850        3.17510        2.65620
H          5.31630        2.96010        1.35690
H          2.98360        1.23510        2.27480
H          4.54310        0.61480        1.64350
