19
8647	1
N          3.18250       -1.04040       -0.85620
C          2.52750       -0.01990       -0.04310
C          2.91690       -0.16120        1.43590
C          2.25410        0.85020        2.34360
C          2.62350        0.26560        3.69740
N          2.53480       -1.19460        3.55680
C          2.45550       -1.44980        2.10990
H          2.94240       -0.86670       -1.85890
H          2.79980       -1.98040       -0.60540
H          1.42360       -0.09170       -0.16530
H          2.85270        0.98240       -0.39790
H          4.02350       -0.06640        1.54260
H          1.14810        0.79260        2.21500
H          2.58120        1.90220        2.20040
H          2.00460        0.66680        4.52860
H          3.68800        0.51110        3.90830
H          1.65920       -1.54620        4.00920
H          1.38840       -1.63430        1.83920
H          3.05170       -2.33670        1.80930
