15
8674	1
O          2.75940       -1.14730       -0.31730
C          2.46840        0.20840       -0.12180
C          2.71150        0.97700       -1.41960
O          2.38860        2.34280       -1.22840
C          3.43900        3.01440       -1.84230
C          4.60170        2.10750       -1.62610
O          4.06580        0.83810       -1.81570
H          2.58260       -1.59420        0.55100
H          3.12240        0.62480        0.67700
H          1.39980        0.32440        0.16680
H          2.06100        0.57140       -2.22580
H          3.62050        4.01870       -1.40460
H          3.20920        3.10750       -2.92840
H          4.96330        2.18020       -0.57520
H          5.42950        2.33380       -2.33080
