18
8651	1
C          2.85270       -1.15990       -0.31670
O          2.53060        0.09430        0.24120
C          3.02130        1.13210       -0.58490
C          2.40750        2.46280       -0.22160
C          3.33530        3.39460       -0.98430
N          4.68550        2.82870       -0.85270
C          4.49110        1.46260       -0.34110
H          2.44830       -1.95040        0.34820
H          3.95260       -1.31230       -0.36820
H          2.37270       -1.29830       -1.31080
H          2.82240        0.95500       -1.67180
H          2.53510        2.64130        0.87170
H          1.33340        2.57430       -0.48180
H          3.26560        4.45170       -0.64710
H          3.06540        3.35630       -2.06360
H          5.23560        3.37500       -0.14870
H          4.67600        1.46250        0.76000
H          5.18590        0.73640       -0.81200
