15
8599	1
C          1.09590        0.26460       -0.16400
C          2.42470        0.11790       -0.16630
C          3.31140        0.95400        0.71940
C          4.44960        1.71510        0.05050
C          3.14190        2.43490        0.35500
C          3.42000        3.49650        1.38870
O          3.80150        3.20700        2.51290
H          0.48040       -0.35600       -0.80690
H          0.61900        0.99990        0.47720
H          2.87650       -0.63070       -0.80990
H          3.17700        0.87930        1.81950
H          4.59270        1.26570       -0.95650
H          5.27450        1.65950        0.79350
H          2.78720        2.77780       -0.64150
H          3.26710        4.53870        1.13020
