17
8654	1
O          2.58490       -1.34570        0.62830
C          2.39470       -0.12740       -0.03540
C          2.78550        1.02750        0.89050
C          2.57370        2.39310        0.31380
C          2.74250        3.20540        1.58570
O          2.12720        2.47740        2.63480
C          1.92670        1.16520        2.14030
H          2.33030       -2.05390       -0.01860
H          1.32720       -0.02360       -0.33450
H          3.04190       -0.09020       -0.94010
H          3.85660        0.92630        1.18850
H          1.51960        2.48810       -0.03840
H          3.26100        2.67870       -0.51100
H          2.30500        4.21910        1.46770
H          3.82470        3.30020        1.83040
H          0.84720        1.06920        1.88290
H          2.19330        0.39230        2.89200
