15
8669	1
O          2.65090       -1.38450        0.35630
C          2.43390       -0.02970        0.07700
C          2.76100        0.80290        1.31710
C          2.51610        2.26480        1.11100
O          2.44600        2.76040        2.40750
C          1.90310        1.68260        3.14780
O          1.93880        0.48560        2.39320
H          2.43610       -1.87540       -0.47900
H          1.36860        0.12800       -0.20610
H          3.09890        0.29110       -0.75610
H          3.82020        0.63420        1.62330
H          1.53320        2.45030        0.61930
H          3.33050        2.73380        0.51870
H          0.84850        1.91720        3.40620
H          2.50020        1.54240        4.07400
