12
8638	1
C          1.07380       -0.10000       -0.14700
C          2.27590       -0.03990       -0.07820
C          3.73990        0.06940        0.02690
N          4.47130       -0.68050       -1.01930
C          4.37510        0.79200       -1.07310
C          5.65530        1.41480       -0.72540
C          6.69400        1.95400       -0.43590
H          0.01740       -0.13670       -0.19760
H          4.24800       -0.05580        1.00700
H          3.80040       -1.07450       -1.72130
H          3.83350        1.11150       -1.99210
H          7.60500        2.43150       -0.18700
