13
8631	1
C          1.69410       -0.86020       -0.61660
C          2.41970        0.03310        0.06610
C          3.43470        0.93320       -0.58420
O          2.97160        1.77530       -1.61190
C          3.14810        2.37840       -0.34550
C          4.29070        3.30590       -0.35140
C          5.24780        4.04070       -0.29970
H          1.01610       -1.52020       -0.07950
H          1.77600       -0.96060       -1.69390
H          2.31750        0.07730        1.14440
H          4.50440        0.65150       -0.60880
H          2.16730        2.74070        0.02260
H          6.05840        4.72040       -0.22810
