19
8645	1
C          1.16260        0.33140       -0.54490
O          2.05750       -0.16060        0.42730
C          2.69980       -1.32710       -0.04990
C          3.95950       -1.62570        0.75950
C          4.29470       -3.02380        0.26390
C          2.93410       -3.72780        0.13990
C          1.89680       -2.59780        0.21780
H          0.63330        1.20820       -0.11900
H          0.38470       -0.41960       -0.80460
H          1.70680        0.68510       -1.44830
H          2.99100       -1.25120       -1.12800
H          3.71130       -1.66840        1.84540
H          4.78200       -0.89400        0.60940
H          5.06400       -3.58260        0.83710
H          4.68880       -2.88460       -0.76990
H          2.73300       -4.44540        0.96500
H          2.91240       -4.26760       -0.83210
H          1.56570       -2.53100        1.28100
H          0.98820       -2.75960       -0.39910
