19
8650	1
C          2.72190       -1.31290       -0.18170
N          2.31780        0.07740        0.03400
C          2.74010        0.57460        1.35260
C          2.37610        2.02490        1.56970
C          2.65170        2.13750        3.06060
N          2.19330        0.87670        3.66230
C          2.00520       -0.05330        2.53690
H          2.44200       -1.61910       -1.21140
H          2.20980       -1.99190        0.53330
H          3.82310       -1.41840       -0.07810
H          1.27840        0.15170       -0.06990
H          3.84330        0.46360        1.48220
H          1.28420        2.16490        1.39360
H          2.94040        2.75140        0.94700
H          2.19210        3.03840        3.52240
H          3.75290        2.19410        3.21300
H          1.26930        1.02310        4.13300
H          0.91600       -0.10630        2.29850
H          2.36130       -1.07680        2.77750
