18
8686	1
C          1.04810       -0.26180        0.09470
C          2.27080        0.27280        0.16100
C          2.95190        0.85200       -1.05620
C          3.28650        2.32890       -0.88080
C          4.31300        2.49140       -1.97350
C          5.16420        1.25950       -1.71470
N          4.22390        0.17910       -1.37670
H          0.58730       -0.66980        0.98850
H          0.50200       -0.29630       -0.84280
H          2.78950        0.29130        1.11540
H          2.30090        0.75610       -1.95680
H          3.78870        2.49320        0.10140
H          2.40960        3.00700       -0.95650
H          4.87730        3.44790       -1.94950
H          3.81010        2.39050       -2.96280
H          5.80900        1.46580       -0.82730
H          5.82090        0.99860       -2.57100
H          4.61020       -0.35100       -0.55960
