9
8615	1
N          0.94370       -0.18160       -0.25720
C          2.08690       -0.06340       -0.12210
C          3.53250        0.09640        0.05170
O          4.22070       -0.57460       -0.97490
C          4.22300        0.83150       -1.03480
C          5.54600        1.35270       -0.68360
N          6.58790        1.76960       -0.40100
H          4.02500       -0.10740        1.02610
H          3.67870        1.17770       -1.93890
