13
8711	1
C          1.17660       -0.01700        0.21110
C          2.37070        0.04040        0.05620
C          3.82410        0.11010       -0.13150
O          4.34600        1.18180        0.63110
C          5.48220        0.63760        1.21820
C          5.11410       -0.79280        1.42050
O          4.41040       -1.11670        0.26470
H          0.12830       -0.06750        0.34710
H          4.05170        0.28900       -1.20430
H          5.74660        1.12870        2.17840
H          6.32750        0.72840        0.49810
H          4.42470       -0.89870        2.28890
H          6.01370       -1.42690        1.56780
