14
8721	1
F          1.05600        0.17400       -0.29770
C          2.40410        0.05910       -0.16510
C          3.00330       -1.12770       -0.31510
C          2.31450       -2.37350       -0.65190
C          3.44380       -3.34610       -0.34680
O          4.67330       -2.69120       -0.58840
C          4.46430       -1.34160       -0.21790
H          2.99210        0.94220        0.06450
H          2.05970       -2.33160       -1.73290
H          1.42560       -2.61680       -0.03050
H          3.33610       -4.28330       -0.93230
H          3.42510       -3.60830        0.73690
H          4.98080       -0.68470       -0.94970
H          4.83270       -1.14440        0.81200
