14
8704	1
O          1.55490       -0.81900       -0.22090
C          2.12590        0.06730        0.39490
N          3.14040       -0.23180        1.24170
C          3.80180        0.77250        2.02650
C          4.87090       -0.05680        2.67640
C          4.17770       -1.40740        2.71400
O          3.51360       -1.50720        1.47200
H          1.81420        1.09860        0.25770
H          3.07330        1.16920        2.76790
H          4.24250        1.59640        1.42380
H          5.27840        0.33350        3.63270
H          5.70320       -0.16210        1.94340
H          3.41970       -1.44020        3.52990
H          4.91250       -2.22730        2.85940
