18
8716	1
C          1.05730        0.02700        0.19480
C          2.55120        0.13830        0.11180
C          3.19920        1.28090        0.39710
C          2.55850        2.54330        0.83550
C          3.72810        3.50220        0.63670
N          4.95080        2.74420        0.91210
C          4.68060        1.41700        0.34130
H          0.74330       -1.00130       -0.08050
H          0.58160        0.74360       -0.50750
H          0.71630        0.24020        1.22980
H          3.12190       -0.73610       -0.18840
H          2.27440        2.42640        1.90340
H          1.69590        2.88060        0.22180
H          3.63740        4.43230        1.23790
H          3.76480        3.79380       -0.43890
H          5.01150        2.64000        1.95350
H          5.18600        0.63450        0.94990
H          5.02520        1.35480       -0.71340
