14
8731	2
N          1.00060        0.09200        0.17920
N          2.36200        0.16540       -0.01290
C          2.95260        1.25330       -0.37840
C          2.33650        2.56190       -0.58290
C          3.57810        3.27010       -1.17600
O          4.75830        2.60520       -0.73140
N          4.32900        1.35130       -0.51320
H          0.57720       -0.80020        0.46970
H          0.39040        0.91070        0.04030
H          2.05760        2.95080        0.41990
H          1.48620        2.60190       -1.29680
H          3.57740        4.35480       -0.94000
H          3.55620        3.15320       -2.28370
H          4.97680        0.56280       -0.37120
