16
8763	2
N          3.18030       -0.99910        0.42890
C          2.31940        0.04030       -0.12880
C          3.09050        1.35660       -0.31870
C          2.18730        2.48980       -0.90410
N          2.22770        3.52730        0.10630
C          2.94440        3.18300        1.09370
N          3.49850        1.92000        0.94160
H          2.63450       -1.88990        0.47200
H          3.43860       -0.74970        1.41030
H          1.43840        0.19800        0.53340
H          1.95510       -0.29860       -1.12330
H          3.98330        1.19640       -0.96240
H          1.13470        2.16460       -1.05240
H          2.60440        2.87820       -1.85780
H          3.10850        3.81530        1.95580
H          4.13080        1.47460        1.62180
