17
8705	1
C          0.94410        0.07040        0.00310
C          2.14820        0.08020        0.06060
C          3.61490        0.09230        0.13000
C          4.19680        1.18570        1.01430
C          5.63940        0.70540        1.13000
C          5.42650       -0.75100        1.51680
C          4.23060       -1.21150        0.66730
H         -0.11290        0.06180       -0.04740
H          4.02680        0.26880       -0.89110
H          3.71960        1.16520        2.02200
H          4.09170        2.20560        0.58610
H          6.24950        1.27240        1.86500
H          6.13380        0.76070        0.13290
H          5.08460       -0.72590        2.57790
H          6.31750       -1.41210        1.47430
H          3.55250       -1.79930        1.32580
H          4.53010       -1.83600       -0.20250
