13
8693	1
O          2.28780        1.05830        0.53030
C          2.11240       -0.08710        0.14620
C          2.87390       -1.21860        0.77040
C          2.55380       -1.38960        2.22130
O          2.97930       -2.68510        2.48970
C          2.77480       -3.36410        1.26440
O          2.52850       -2.44570        0.21590
H          1.40680       -0.28170       -0.65510
H          3.96900       -1.06640        0.62790
H          1.45480       -1.34390        2.40370
H          3.07410       -0.63230        2.84570
H          1.89910       -4.03980        1.36800
H          3.68420       -3.95370        1.02070
