15
8770	1
C          1.94470       -0.34310        1.42010
O          2.05430        0.25900        0.14980
C          3.04670        1.26570        0.18030
C          3.39100        1.70750       -1.27160
C          3.02430        3.14280       -1.23920
C          2.55310        3.46000       -0.01060
O          2.55910        2.40490        0.80320
H          1.12530       -1.08990        1.38200
H          1.66980        0.39850        2.20260
H          2.87490       -0.89190        1.68620
H          3.98370        0.92470        0.68130
H          2.77480        1.18300       -2.03340
H          4.47460        1.59640       -1.49060
H          3.11230        3.83850       -2.06310
H          2.21330        4.44410        0.28260
