13
8696	1
O          2.38210       -0.60180       -0.54060
C          2.05020        0.18750        0.32910
C          3.07100        1.07020        0.98080
O          2.73360        2.42510        0.74850
C          2.91800        3.02290        1.98950
C          2.56330        1.93960        2.94980
O          3.10740        0.79780        2.37040
H          1.00960        0.24930        0.63080
H          4.08150        0.88010        0.55540
H          2.27830        3.91910        2.13380
H          3.99230        3.30100        2.08920
H          1.45810        1.81120        3.00180
H          2.97180        2.14430        3.96190
