13
8739	1
N          1.03790       -0.26490       -0.02390
N          2.39520       -0.09760        0.13650
C          3.01160       -0.42630        1.22150
C          2.41440       -1.00980        2.42450
O          3.51780       -1.17170        3.30090
C          4.68170       -0.69870        2.61720
O          4.30670       -0.26540        1.37310
H          0.59450        0.01270       -0.91050
H          0.44980       -0.66130        0.72380
H          1.96070       -1.99650        2.19230
H          1.67240       -0.31170        2.86650
H          5.41640       -1.52470        2.51280
H          5.12980        0.14660        3.18110
