13
8800	1
C          1.97400       -0.89140        1.00980
C          2.21190       -0.14330       -0.07150
C          3.22760        0.96570       -0.05460
O          4.18610        0.75600       -1.04240
C          4.15310        1.77150       -1.91020
C          3.19880        2.63960       -1.51950
O          2.62870        2.17270       -0.40490
H          1.23490       -1.68470        0.96710
H          2.51020       -0.71970        1.93820
H          1.65920       -0.33950       -0.98570
H          3.72250        1.06360        0.93690
H          4.79080        1.86980       -2.77820
H          2.93060        3.56190       -2.01690
