10
8802	1
N          0.99100        0.04940        0.28250
C          2.14250        0.04910        0.16850
C          3.60220        0.04880        0.02360
O          4.01520       -1.05100       -0.72310
C          4.63500       -0.62560       -1.82790
C          4.63530        0.72230       -1.82810
O          4.01570        1.14820       -0.72330
H          4.09040        0.04880        1.02130
H          5.06090       -1.26560       -2.58880
H          5.06140        1.36200       -2.58910
