13
8833	1
N          1.15850       -0.05740       -0.15430
N          2.51530        0.12460       -0.00600
C          3.11760        1.19990       -0.38800
C          2.45730        2.39200       -1.03690
C          3.68340        3.22920       -1.20580
C          4.77990        2.55970       -0.71820
O          4.44420        1.36090       -0.23530
H          0.72700       -0.93480        0.16760
H          0.55920        0.66420       -0.58080
H          1.72160        2.87990       -0.36330
H          2.00220        2.13540       -2.01660
H          3.71520        4.21720       -1.64530
H          5.78980        2.94720       -0.72130
