15
8818	1
N          1.08220        0.04790        0.27930
N          2.45160       -0.09410        0.24180
C          3.04950       -1.19430        0.55880
C          2.35010       -2.45000        1.00460
C          3.51460       -3.34390        1.22100
C          4.71200       -2.72570        0.94970
C          4.54050       -1.31900        0.50830
H          0.65950        0.94880        0.01570
H          0.46420       -0.72530        0.56500
H          1.68490       -2.85150        0.21120
H          1.79060       -2.29280        1.95090
H          3.43780       -4.37010        1.55520
H          5.67060       -3.21750        1.04940
H          4.92500       -1.17330       -0.52310
H          5.03050       -0.61550        1.21390
