16
8880	1
C          2.99860        1.24620       -0.37930
N          2.39610       -0.04280       -0.02760
C          3.13510       -1.17160       -0.61460
C          2.42730       -2.52730       -0.30800
O          3.35280       -3.28620        0.38510
C          4.49070       -2.62480        0.59100
C          4.45160       -1.38410        0.04990
H          2.38360        2.06660        0.04700
H          3.04070        1.37630       -1.48310
H          4.01880        1.33560        0.04790
H          1.42710       -0.04640       -0.42480
H          3.28380       -1.03940       -1.71040
H          2.14060       -3.04240       -1.24960
H          1.52850       -2.39140        0.33180
H          5.33760       -3.03680        1.12300
H          5.27060       -0.67850        0.08870
