14
8887	1
C          1.85430        1.19080        0.83380
O          2.24150       -0.02090        0.22500
C          2.86110       -0.86580        1.17570
C          3.71270       -1.94930        0.46080
O          3.09420       -3.13440        0.80440
N          2.05610       -2.96230        1.57970
C          1.85450       -1.74100        1.83720
H          1.30190        1.79610        0.08610
H          2.74320        1.78270        1.14470
H          1.16070        1.01860        1.68640
H          3.48340       -0.32290        1.92650
H          4.75710       -1.95340        0.83990
H          3.70210       -1.82690       -0.64370
H          1.04120       -1.40120        2.46420
