14
8807	1
O          2.62680        1.03900        0.09400
C          2.56860       -0.17980        0.03310
N          2.95030       -0.83580       -1.09310
C          2.89590       -2.27770       -1.20310
C          3.40130       -2.49750       -2.58000
C          3.70960       -1.30670       -3.18640
C          3.44320       -0.16420       -2.27950
H          2.20720       -0.73820        0.89160
H          1.85290       -2.64600       -1.09960
H          3.56050       -2.75970       -0.45470
H          3.51520       -3.46420       -3.05210
H          4.09560       -1.22270       -4.19360
H          2.66990        0.50910       -2.70730
H          4.37800        0.39540       -2.06220
