10
8804	1
O          1.11010        0.32550        0.03620
C          2.27940        0.01540       -0.12550
C          3.12780       -0.37190        1.04620
O          3.67300       -1.63710        0.86080
C          5.00390       -1.50230        0.84340
N          5.33700       -0.29490        0.99510
O          4.25570        0.43270        1.12090
H          2.70430        0.02110       -1.12430
H          2.55560       -0.32990        1.99880
H          5.70770       -2.31350        0.71630
