16
8871	1
N          2.33150        0.65840        1.45220
C          2.35630        0.02550        0.13660
C          3.28940       -1.19370        0.13710
C          3.29510       -1.94060       -1.23340
N          2.88490       -3.26630       -0.85890
N          2.61860       -3.37430        0.46720
C          2.81420       -2.27640        1.06850
H          1.68350        1.47810        1.41360
H          3.28720        1.01970        1.67700
H          2.71180        0.76030       -0.61990
H          1.32450       -0.28880       -0.13660
H          4.32130       -0.89830        0.42810
H          4.31180       -1.96080       -1.68050
H          2.55710       -1.52640       -1.95430
H          2.77930       -4.05200       -1.51640
H          2.67240       -2.16290        2.13510
