10
8851	2
O          1.01670        0.12430        0.04440
N          2.33090        0.05770        0.04810
C          2.93620       -0.84820        0.72240
N          4.27630       -0.97670        0.77260
C          4.43770       -2.04260        1.58590
N          3.24430       -2.51510        1.99230
H          3.06150       -3.32670        2.62260
O          2.33990       -1.76290        1.44690
H          0.56890        0.81120       -0.46720
H          5.39470       -2.45880        1.87120
