12
8796	1
N          1.05110       -0.08620        0.34370
C          2.18960       -0.03470        0.14240
C          3.63480        0.03090       -0.11340
C          4.15370       -1.25040       -0.83170
C          4.72140       -0.67580       -2.07520
C          4.53690        0.66630       -2.07850
O          3.91470        1.07820       -0.97360
H          4.17630        0.19090        0.84370
H          3.34410       -1.96450       -1.09960
H          4.94910       -1.75500       -0.24270
H          5.20350       -1.23240       -2.86780
H          4.85300        1.32840       -2.87330
