12
8825	2
O          1.08610       -0.21010        0.23110
N          2.39820       -0.22170        0.13120
C          2.97630       -0.79960       -0.86060
C          2.30180       -1.51270       -1.99870
C          3.56660       -1.91790       -2.74710
N          4.64210       -1.52640       -2.16580
N          4.35710       -0.84780       -1.02560
H          0.66230        0.22760        0.98140
H          1.66830       -0.82880       -2.60150
H          1.72690       -2.39740       -1.65340
H          3.57810       -2.47700       -3.67290
H          5.06680       -0.44230       -0.39860
