10
8860	1
N          1.06260        0.04850        0.00160
N          2.43840        0.06660        0.00460
C          3.10110        1.12800       -0.28730
O          4.40660        1.20210       -0.30030
C          4.68260        2.44020       -0.64370
N          3.53900        3.13050       -0.84270
O          2.57810        2.28420       -0.61250
H          0.56520       -0.82050        0.24090
H          0.51610        0.89010       -0.23610
H          5.67800        2.84930       -0.75190
