14
8797	1
C          2.28000       -1.32940        0.04240
C          2.00820       -0.03180       -0.12270
C          2.93450        0.87660       -0.88760
C          2.21220        1.57640       -2.07310
C          2.38920        2.99380       -1.66930
N          3.00710        3.09390       -0.57020
O          3.33490        1.92530       -0.08390
H          1.59380       -1.95960        0.59880
H          3.18150       -1.76960       -0.37280
H          1.09780        0.37860        0.30530
H          3.83870        0.34050       -1.25310
H          1.12630        1.34510       -2.13100
H          2.72060        1.38430       -3.04190
H          2.03590        3.85220       -2.22460
