17
8869	1
C          3.16060       -0.81130       -0.62480
O          2.30570        0.16420       -0.07100
C          3.05030        1.05950        0.73210
C          2.10880        1.81820        1.67900
C          1.57600        3.01430        0.88140
C          2.72550        3.27910       -0.01940
C          3.55290        2.18910       -0.10250
H          2.56160       -1.45750       -1.29860
H          3.58540       -1.46730        0.16660
H          3.96060       -0.35070       -1.24560
H          3.81940        0.54990        1.36030
H          2.77230        2.26400        2.45870
H          1.35130        1.20920        2.21620
H          1.32930        3.85170        1.56860
H          0.70290        2.75010        0.24720
H          2.84640        4.16670       -0.62590
H          4.39390        2.13220       -0.78050
