13
8961	2
N          1.07040        0.57430        0.17320
N          2.42990        0.49570        0.45110
C          2.98380       -0.65220        1.07240
C          4.31120       -0.83090        1.39620
C          4.35950       -2.08280        1.97240
N          3.11590       -2.60130        1.97960
H          2.83950       -3.53620        2.35240
N          2.27430       -1.73730        1.43430
H          0.54420        0.48120        1.07210
H          0.81660       -0.21780       -0.46040
H          3.04230        1.28600        0.20170
H          5.13220       -0.14480        1.23590
H          5.23740       -2.58280        2.35980
