13
8926	1
O          2.64980        1.13160       -0.05650
C          2.22800        0.00750       -0.28010
N          2.98240       -0.88560       -0.96490
C          2.56550       -2.22820       -1.27250
C          3.79470       -2.77920       -2.05020
C          4.72210       -1.59640       -2.04040
N          4.22340       -0.60050       -1.43630
H          1.24090       -0.27270        0.07480
H          1.65570       -2.21110       -1.91100
H          2.38840       -2.79980       -0.33570
H          3.53170       -3.04790       -3.09520
H          4.26470       -3.63500       -1.52060
H          5.70550       -1.57460       -2.49010
