12
8964	4
N          1.29840        0.30420       -0.30590
N          2.58150        0.34960        0.22610
C          3.04370       -0.66190        1.10550
C          4.27340       -0.71940        1.71060
N          4.27800       -1.83850        2.45230
H          5.05740       -2.19400        3.04830
N          3.10360       -2.43670        2.30530
N          2.32950       -1.73680        1.48630
H          0.61420        0.30970        0.48460
H          1.19580       -0.58460       -0.84670
H          3.20270        1.13390       -0.01990
H          5.09280       -0.01760        1.62690
