9
8980	1
O          0.93200        0.04890       -0.05980
N          2.24790        0.02530       -0.06130
C          2.88370       -1.08110       -0.18850
N          2.31220       -2.28910       -0.32840
N          3.32800       -3.13750       -0.42540
O          4.44280       -2.46300       -0.34660
N          4.21670       -1.19220       -0.20010
H          4.93800       -0.44230       -0.11290
H          0.46370        0.88890        0.03680
