15
8957	2
C          1.11670       -0.18090        0.01310
N          2.53980        0.06880        0.00320
C          3.08400        0.99370       -0.71310
N          4.46240        1.24280       -0.72880
C          4.76910        2.33810       -1.62560
C          3.39790        2.71720       -2.14840
C          2.41800        1.91500       -1.60020
H          0.89990       -1.02130        0.70390
H          0.76870       -0.45760       -1.00520
H          0.57150        0.72050        0.36620
H          5.16110        0.72090       -0.18000
H          5.43100        1.99790       -2.44940
H          5.23290        3.18120       -1.07180
H          3.20260        3.51030       -2.85770
H          1.35910        1.98390       -1.81180
