13
9000	1
O          2.94830       -1.29480        0.36430
C          2.23890       -0.13510        0.02760
C          2.86680        1.07020        0.72810
C          2.22520        2.36900        0.31150
N          3.06810        3.13300       -0.26250
N          4.28980        2.53830       -0.32000
C          4.25050        1.38310        0.21610
H          2.49080       -2.04210       -0.10170
H          1.18380       -0.23210        0.36890
H          2.26290        0.01460       -1.07620
H          2.85370        0.94300        1.83190
H          1.19050        2.64330        0.46800
H          5.11330        0.73380        0.28310
