13
9036	1
C          1.61970       -0.11390        0.85030
N          2.48150        0.14770       -0.07090
N          3.04770       -0.82920       -0.89250
C          3.94740       -0.56700       -1.85610
C          4.30650       -1.74370       -2.48230
C          3.59160       -2.75600       -1.86830
C          2.82130       -2.16160       -0.88890
H          1.22080        0.69500        1.45200
H          1.27660       -1.12150        1.04710
H          4.32250        0.42050       -2.09210
H          5.01090       -1.85290       -3.29590
H          3.62890       -3.81000       -2.10900
H          2.14630       -2.68580       -0.22780
