14
9006	1
C          1.20780       -0.26580       -0.51570
O          2.58810       -0.52920       -0.58040
N          2.83830       -1.55120        0.28250
C          3.17440       -1.42400        1.57860
C          3.36690       -2.67870        2.12260
C          3.14150       -3.59240        1.10620
C          2.81980       -2.86150       -0.02060
H          0.97580        0.56870       -1.20870
H          0.91060        0.05810        0.50610
H          0.61740       -1.14820       -0.84790
H          3.27390       -0.47900        2.09640
H          3.64340       -2.90420        3.14380
H          3.20790       -4.66950        1.17980
H          2.58760       -3.26130       -0.99900
