13
9034	1
N          2.44650       -1.18530        0.15450
C          2.11430        0.04850        0.03240
N          2.81470        0.90770       -0.87940
C          2.54590        2.21080       -1.08110
C          3.41460        2.72110       -2.02430
C          4.24100        1.68130       -2.40640
C          3.84590        0.57450       -1.68190
H          1.94100       -1.79850        0.81020
H          1.29480        0.44680        0.62500
H          1.76420        2.76170       -0.57360
H          3.44240        3.73780       -2.39250
H          5.04180        1.72700       -3.13240
H          4.28850       -0.41180       -1.74130
