17
8992	1
C          1.96300       -1.25940       -0.96630
C          2.38840       -0.05730       -0.12440
C          3.06450        1.03360       -0.96940
C          3.43310        2.22400       -0.13240
C          2.78360        3.35660       -0.56820
C          1.99790        3.04540       -1.64440
C          2.12080        1.70440       -1.92880
H          1.50570       -2.02860       -0.30890
H          2.84480       -1.70480       -1.47410
H          1.21330       -0.96260       -1.72890
H          3.10940       -0.41150        0.64440
H          1.49720        0.35780        0.39700
H          3.95700        0.62970       -1.49420
H          4.11870        2.20600        0.70470
H          2.88850        4.33740       -0.12400
H          1.37670        3.73860       -2.19560
H          1.60240        1.21350       -2.74170
