11
9052	1
C          2.61970       -1.46750        0.44240
N          2.37080       -0.31270       -0.06800
N          3.04890        0.16240       -1.18750
C          2.84860        1.34820       -1.77580
C          3.72360        1.40910       -2.83780
N          4.42670        0.25540       -2.85750
N          3.99790       -0.48530       -1.84450
H          2.06770       -1.79840        1.31500
H          3.37440       -2.12160        0.01650
H          2.13290        2.09600       -1.45990
H          3.84470        2.22130       -3.54160
