11
9074	2
O          1.24620       -0.06210       -0.59460
N          2.10740        0.22630        0.18020
C          2.78530       -0.77520        0.91290
C          3.78960       -0.55520        1.82800
C          4.15660       -1.80320        2.29530
N          3.41210       -2.75530        1.69580
H          3.47730       -3.78430        1.85950
C          2.56990       -2.13600        0.84800
H          4.20730        0.39850        2.12240
H          4.92370       -2.00510        3.03130
H          1.84710       -2.64600        0.22450
