15
9007	1
C          1.03540        0.06690       -0.03220
C          2.55370        0.17840       -0.13010
N          3.01470       -0.16250       -1.47550
C          3.67170        0.64090       -2.32720
C          3.92190       -0.07210       -3.47800
N          3.42280       -1.31840       -3.34090
C          2.87560       -1.34450       -2.10750
H          0.70700        0.33800        0.99320
H          0.70640       -0.97160       -0.24650
H          0.55620        0.75830       -0.75750
H          3.02750       -0.50540        0.60650
H          2.84880        1.22130        0.11940
H          3.94820        1.66820       -2.12740
H          4.43450        0.28840       -4.35960
H          2.38790       -2.21200       -1.68200
