10
9065	1
N          2.65320       -1.19380        0.11050
C          2.12120       -0.03880       -0.06090
N          2.87920        1.02710       -0.64150
N          2.41440        2.24460       -0.85460
C          3.44130        2.91780       -1.40660
N          4.51470        2.10900       -1.52350
N          4.13660        0.93670       -1.03910
H          2.10910       -1.96240        0.52830
H          1.09000        0.13240        0.23560
H          3.41020        3.95500       -1.71160
