14
9138	1
C          0.91670        0.10490       -0.14700
C          2.42120        0.02740        0.08560
C          2.88900        1.18140        0.92040
N          3.45500        1.06010        2.04350
O          3.73610        2.25300        2.50370
C          3.31860        3.22610        1.60430
O          2.76680        2.47010        0.57630
H          0.59150       -0.75600       -0.76830
H          0.65430        1.04490       -0.67790
H          0.37520        0.06960        0.82260
H          2.94860        0.05060       -0.89160
H          2.66040       -0.93100        0.59590
H          4.18380        3.81680        1.23620
H          2.55020        3.88210        2.06500
