13
9142	1
C          1.07790        0.54020        0.30670
N          2.31180       -0.00390       -0.20600
C          3.00080        0.63350       -1.26950
N          4.08230        0.20460       -1.75860
O          4.45480        1.01440       -2.71780
C          3.53680        2.05020       -2.85740
O          2.59420        1.75440       -1.87820
H          0.69680       -0.09860        1.13140
H          0.31670        0.57560       -0.50110
H          1.25110        1.56530        0.69730
H          2.69740       -0.86690        0.20610
H          3.07380        2.03010       -3.86640
H          4.01800        3.03030       -2.65530
