13
9167	1
O          2.16980        1.16530       -0.23050
C          2.13720        0.01100        0.16400
C          2.93670       -0.40040        1.32870
N          2.93890       -1.58770        1.77960
C          3.81390       -1.70630        2.92880
C          4.39090       -0.27240        3.11890
N          3.76400        0.45450        2.05080
H          1.51380       -0.71410       -0.34910
H          4.62140       -2.43760        2.71130
H          3.22700       -2.02330        3.81720
H          5.49450       -0.25550        2.99190
H          4.09310        0.16180        4.09720
H          3.90620        1.45580        1.85330
