13
9185	1
C          0.95120        0.03500       -0.06830
C          2.15560        0.03540       -0.11740
C          3.59450        0.03640       -0.17610
C          4.33870       -1.03350       -0.05970
C          5.77180       -0.66160       -0.16840
C          5.67180        0.87030       -0.37560
O          4.31830        1.14410       -0.35720
H         -0.10620        0.03470       -0.02520
H          3.96160       -2.03710        0.09330
H          6.23260       -1.16750       -1.04350
H          6.30360       -0.91720        0.77290
H          6.10040        1.16870       -1.35630
H          6.17650        1.41800        0.44900
