15
9135	1
C          1.46620        0.47210       -0.90140
N          2.40620       -0.02300        0.07490
C          3.12500        0.86900        0.91250
N          3.95820        0.46880        1.78040
C          4.52570        1.59290        2.47180
C          3.81540        2.79290        1.79350
O          2.98990        2.19660        0.86210
H          1.01070       -0.37760       -1.45260
H          1.98780        1.13190       -1.62670
H          0.66070        1.04370       -0.39380
H          2.55720       -1.03910        0.16470
H          5.62400        1.62220        2.30670
H          4.28200        1.53280        3.55410
H          4.54430        3.45590        1.28030
H          3.20560        3.36640        2.52400
