12
9175	1
C          3.00750        1.02330       -0.43250
C          2.43220       -0.09530        0.01650
C          3.19520       -1.34920        0.15450
N          2.69470       -2.43030        0.57400
O          3.62550       -3.35090        0.57930
C          4.82760       -2.82230        0.12580
O          4.49350       -1.49960       -0.14190
H          2.42290        1.93290       -0.52460
H          4.05720        1.04170       -0.70980
H          1.38010       -0.08140        0.28570
H          5.15860       -3.33860       -0.79990
H          5.60410       -2.87840        0.91750
