12
9183	1
C          1.10870       -0.09100        0.19650
C          2.30620       -0.02970        0.07340
C          3.73620        0.04470       -0.07360
N          4.46210       -0.97750       -0.24900
O          5.72580       -0.65980       -0.35480
C          5.95000        0.70000       -0.24970
C          4.53450        1.29710       -0.04030
H          0.05730       -0.14470        0.30450
H          6.41080        1.07810       -1.18700
H          6.60600        0.90610        0.62270
H          4.23630        1.96780       -0.87430
H          4.43260        1.79400        0.94830
