17
9094	1
C          3.58270       -0.52180        1.05840
C          2.70200       -0.12230       -0.12120
C          2.96930        1.29710       -0.54840
C          3.39620        1.64930       -1.73700
O          3.53780        2.97170       -1.84200
C          3.19940        3.62450       -0.67230
C          2.77500        2.50280        0.30510
H          3.36580       -1.57260        1.34420
H          3.38130        0.12830        1.93580
H          4.65550       -0.44170        0.78100
H          1.63340       -0.21820        0.16660
H          2.90120       -0.82110       -0.96320
H          3.61070        0.96240       -2.54550
H          2.35980        4.32700       -0.86190
H          4.08320        4.17590       -0.28560
H          1.70690        2.59300        0.59750
H          3.43630        2.46790        1.19680
