17
9093	1
C          2.46890        1.40460       -0.64050
O          2.33140        0.05650       -0.38940
C          2.99530       -0.90040       -1.08560
C          2.88580       -2.18570       -0.79790
C          3.81740       -3.00940       -1.61320
C          4.12540       -2.04560       -2.76220
C          4.00390       -0.64420       -2.16050
H          1.82620        1.97220        0.06310
H          2.14950        1.63670       -1.67890
H          3.52430        1.71780       -0.49090
H          2.27850       -2.56620        0.01330
H          3.37440       -3.94800       -2.00990
H          4.71050       -3.22590       -0.98830
H          3.25850       -2.13930       -3.45910
H          5.04080       -2.25410       -3.35480
H          3.68430        0.07470       -2.94520
H          4.94210       -0.30770       -1.66930
