16
9101	1
O          3.48600       -0.16530        0.99130
C          2.57380       -0.16700       -0.07010
C          2.88000        0.98150       -0.98800
C          3.18110        0.85720       -2.25470
C          3.41320        2.17680       -2.87380
N          3.25220        3.15620       -1.78370
C          2.86720        2.40380       -0.57710
H          3.23220       -0.92780        1.57350
H          1.53960       -0.03800        0.31850
H          2.64620       -1.13100       -0.62300
H          3.24220       -0.08760       -2.78030
H          2.67260        2.34820       -3.68510
H          4.44390        2.23140       -3.28140
H          2.50430        3.84490       -2.02860
H          1.85090        2.69000       -0.22880
H          3.60930        2.58090        0.22890
