16
9123	1
C          0.79130        0.14050       -0.74000
N          2.11270        0.67100       -0.50180
C          3.10760       -0.08620        0.17530
N          4.27560        0.36080        0.39540
C          5.07950       -0.61760        1.10030
C          4.12460       -1.83510        1.28670
N          2.91510       -1.37660        0.66250
H          0.85880       -0.77870       -1.35960
H          0.17520        0.89010       -1.28020
H          0.29870       -0.09600        0.22670
H          2.33950        1.62170       -0.83080
H          5.39860       -0.20490        2.08110
H          5.96270       -0.89170        0.48470
H          3.93870       -2.04780        2.36120
H          4.50410       -2.73640        0.75950
H          2.04580       -1.92430        0.59110
