17
9109	1
C          3.67520        0.01200        0.95630
C          2.53230       -0.06340       -0.05080
C          2.81040        0.78660       -1.25860
N          2.88850        0.30470       -2.43100
N          3.13450        1.27670       -3.34450
C          3.24060        2.58060       -2.74710
C          3.00750        2.28040       -1.23960
H          3.44270       -0.63260        1.83000
H          3.81210        1.05360        1.31620
H          4.62020       -0.34310        0.49250
H          1.59250        0.28370        0.42870
H          2.39950       -1.12330       -0.35980
H          3.23570        1.08570       -4.35150
H          2.45520        3.25160       -3.15570
H          4.25530        2.99500       -2.92810
H          2.09010        2.77880       -0.86030
H          3.89490        2.55400       -0.63070
