11
9186	1
C          1.03080       -0.04470        0.10830
C          2.23470       -0.04780        0.04600
C          3.67240       -0.05090       -0.02860
C          4.43550       -1.10550        0.01830
O          5.71210       -0.71870       -0.08010
C          5.76100        0.66540       -0.19630
O          4.42650        1.04660       -0.15800
H         -0.02610       -0.04190        0.16280
H          4.10670       -2.13180        0.11970
H          6.22190        0.95880       -1.16320
H          6.31690        1.10840        0.65700
