15
9147	1
O          2.65100        1.02740       -0.10900
C          2.10890       -0.05610        0.03820
C          2.88470       -1.30170       -0.10180
C          2.37150       -2.50550        0.10160
C          3.41300       -3.56440        0.02940
C          4.51790       -2.82980       -0.73280
C          4.35410       -1.35560       -0.35910
H          1.04970       -0.09680        0.27250
H          1.34450       -2.67840        0.39800
H          3.10500       -4.47510       -0.52770
H          3.70910       -3.81740        1.07010
H          4.22170       -2.89300       -1.80720
H          5.54180       -3.25160       -0.65350
H          4.70550       -0.71190       -1.19420
H          4.87310       -1.09600        0.58880
