14
9107	1
F          0.97870       -0.20350        0.13300
C          2.33920        0.03720        0.09120
C          2.72590        0.93850        1.22610
C          3.57090        0.63680        2.16100
C          3.69640        1.76630        3.09570
O          2.82890        2.78770        2.61710
C          2.20020        2.29980        1.43860
H          2.59390        0.52750       -0.87130
H          2.87780       -0.93300        0.14930
H          4.10180       -0.30360        2.23940
H          4.74540        2.13030        3.10280
H          3.38390        1.44650        4.11210
H          2.46230        2.94440        0.57300
H          1.09970        2.26190        1.58290
