13
9206	2
O          2.35050       -0.22040       -1.36700
C          2.59840        0.09580       -0.02560
C          2.82430       -1.15180        0.77340
C          3.09390       -1.20880        2.12150
N          3.23510       -2.50050        2.48040
C          3.04860       -3.20470        1.34280
N          2.79690       -2.40480        0.28970
H          2.61890       -2.70720       -0.69380
H          2.21230        0.64510       -1.83240
H          1.72310        0.63290        0.40170
H          3.50910        0.73010        0.04880
H          3.18250       -0.37100        2.80040
H          3.09610       -4.28420        1.28590
