13
9233	1
C          0.88070       -0.24870        0.76510
N          2.17490       -0.19410        0.12720
C          2.99130       -1.34740        0.00250
N          4.20240       -1.34420       -0.58320
C          4.59820       -2.63110       -0.47340
N          3.66660       -3.38050        0.15170
N          2.66500       -2.57250        0.44650
H          1.79180       -2.86640        0.93700
H          0.41230        0.75820        0.75590
H          0.99210       -0.58080        1.81890
H          0.21960       -0.95470        0.21950
H          2.51450        0.70450       -0.24690
H          5.54170       -3.01220       -0.84000
