10
9285	1
O          1.06350       -0.12660        0.11840
C          2.43130        0.09500       -0.07540
C          2.78170       -0.21500       -1.49130
N          3.30690        0.65700       -2.36910
N          3.45860       -0.02990       -3.49150
N          3.04090       -1.27290       -3.30080
O          2.62840       -1.37710       -2.07320
H          0.88580        0.07420        1.07390
H          3.02400       -0.57280        0.58730
H          2.67620        1.15910        0.13830
