11
9273	1
O          1.25690       -0.52560       -0.52260
C          2.44780        0.04130       -0.05600
C          2.92070        1.06250       -1.03500
N          3.09970        2.36600       -0.75560
N          3.52350        2.93530       -1.87310
C          3.59180        1.96350       -2.80350
O          3.22180        0.81620       -2.28650
H          0.99520       -1.20660        0.15020
H          3.23140       -0.74190        0.04040
H          2.27410        0.52940        0.92870
H          3.90680        2.11100       -3.82770
