15
9202	1
C          0.97380       -0.29870       -0.27950
N          2.22980       -0.01350        0.37340
C          2.95920       -1.02210        1.05640
C          4.16180       -0.82620        1.70150
C          4.51980       -2.05270        2.22580
C          3.51950       -2.94240        1.87720
N          2.57080       -2.30750        1.16410
H          1.70470       -2.74160        0.77520
H          0.57430        0.62480       -0.74950
H          0.23630       -0.66810        0.46400
H          1.12350       -1.06470       -1.06940
H          2.60510        0.94640        0.34230
H          4.71530        0.10000        1.78220
H          5.41020       -2.27460        2.79850
H          3.48800       -3.99390        2.13090
