10
9238	1
F          1.29410       -0.35060        0.57720
C          2.47370        0.10650        0.01810
C          2.91580       -0.79250       -1.09080
N          4.02640       -0.60830       -1.82560
N          4.05190       -1.61380       -2.69030
N          2.99530       -2.39080       -2.49640
N          2.27590       -1.89650       -1.50510
H          1.38880       -2.30870       -1.14050
H          3.25820        0.13820        0.80250
H          2.31370        1.13050       -0.37870
