15
9241	1
C          1.17120        0.43720       -0.39910
C          2.61820        0.08870       -0.06970
C          3.02630       -1.18130       -0.75030
C          4.04800       -1.32060       -1.66690
C          4.05880       -2.65190       -2.01810
C          3.04480       -3.24920       -1.29640
O          2.44990       -2.34500       -0.55060
H          0.88880        1.37920        0.11640
H          0.49000       -0.37170       -0.05820
H          1.04970        0.57970       -1.49430
H          2.72820       -0.03770        1.02820
H          3.27480        0.92340       -0.39810
H          4.70690       -0.54580       -2.03600
H          4.72780       -3.13320       -2.71870
H          2.76980       -4.29490       -1.32730
