13
9243	1
O          2.77430        0.62310       -1.06020
C          2.71320       -0.13820        0.11410
C          2.96420        0.72170        1.31450
C          3.22470        2.07910        1.32540
C          3.38550        2.42090        2.64920
C          3.21490        1.25720        3.37120
O          2.96560        0.26480        2.54620
H          2.60050       -0.00810       -1.80610
H          3.48930       -0.93430        0.08730
H          1.70340       -0.59260        0.21590
H          3.29050        2.74370        0.47410
H          3.60210        3.40440        3.04420
H          3.27370        1.15930        4.44690
