12
9249	1
O          3.38760        0.12490       -1.10020
C          2.55060       -0.01820        0.01220
C          2.90310        1.01290        1.03250
C          2.86060        2.37820        0.87600
N          3.25290        2.94770        2.03050
C          3.51970        1.90680        2.84880
O          3.30950        0.75520        2.25000
H          3.10310       -0.57020       -1.74880
H          2.68510       -1.02840        0.45820
H          1.48900        0.12710       -0.28660
H          2.56640        2.92390       -0.01080
H          3.86310        2.01030        3.86930
