11
9240	1
C          2.62050       -1.61520        0.82930
O          2.35840       -0.28780        0.56830
C          3.02680        0.72840        1.16140
N          2.78720        2.02730        0.92160
N          3.64170        2.69020        1.69030
N          4.38050        1.82900        2.37830
N          4.01290        0.59990        2.06300
H          4.42960       -0.27220        2.45730
H          1.94140       -2.24610        0.22000
H          2.44430       -1.83750        1.90370
H          3.67040       -1.85960        0.56010
