15
9204	2
C          1.05630       -0.40870        0.07310
C          2.49220        0.10540        0.07830
C          3.03400        0.20630       -1.31630
C          3.47280        1.34900       -1.94570
N          3.88590        1.02660       -3.18780
C          3.69140       -0.30650       -3.28880
N          3.17400       -0.82760       -2.16060
H          2.93470       -1.82860       -1.98440
H          0.67990       -0.46950        1.11590
H          1.00520       -1.42150       -0.38000
H          0.40320        0.28200       -0.50210
H          3.13230       -0.58490        0.66780
H          2.51210        1.10590        0.56240
H          3.49270        2.34950       -1.53410
H          3.92510       -0.88600       -4.17210
