14
9378	1
C          1.36310       -0.57550       -0.48170
N          2.36610        0.20200        0.20750
C          3.11620       -0.34100        1.28260
C          4.09140        0.30890        2.00540
N          4.56710       -0.54040        2.93860
N          3.92150       -1.69290        2.81960
H          4.09450       -2.52830        3.42100
C          3.02780       -1.60670        1.81770
H          0.89780        0.03450       -1.28460
H          0.57250       -0.89020        0.23180
H          1.82940       -1.47330       -0.93970
H          2.54100        1.17400       -0.08870
H          4.43450        1.32560        1.86740
H          2.36880       -2.40770        1.50930
