14
9295	1
C          2.32830       -1.16470        0.83590
C          2.57170       -0.07450        0.10020
C          3.24210       -0.12760       -1.21770
C          3.50870        0.97660       -2.00250
C          4.13590        0.50710       -3.13840
C          4.22760       -0.86380       -3.00280
N          3.68260       -1.24510       -1.83290
H          3.62380       -2.22810       -1.48870
H          1.83270       -1.06460        1.79610
H          2.61210       -2.15550        0.50260
H          2.26390        0.89280        0.48660
H          3.27370        2.00830       -1.77530
H          4.48760        1.09840       -3.97320
H          4.66810       -1.54470       -3.71910
