15
9361	1
C          2.06580        1.62000       -0.05230
O          2.16710        0.26130       -0.25950
C          2.88920       -0.28360       -1.27060
C          2.99210       -1.58780       -1.47730
C          3.85870       -1.88870       -2.67280
C          4.22530       -0.49600       -3.10110
C          3.65070        0.43180       -2.27130
H          1.42300        1.80560        0.83260
H          1.60470        2.10990       -0.93660
H          3.07000        2.05510        0.13940
H          2.51210       -2.33750       -0.86180
H          3.28590       -2.41640       -3.46380
H          4.75790       -2.47150       -2.38290
H          4.85460       -0.24860       -3.94560
H          3.75990        1.50410       -2.36540
