14
9360	1
F          2.14440       -0.16280        1.38940
C          2.31400        0.07630        0.03850
C          2.80230        1.47790       -0.16630
C          3.94650        1.81630       -0.74970
C          4.12550        3.31140       -0.79130
C          2.85910        3.75350       -0.11790
C          2.09920        2.67010        0.23980
H          1.34210       -0.05530       -0.48100
H          3.03900       -0.66000       -0.36940
H          4.66020        1.10500       -1.14540
H          4.17810        3.68280       -1.83600
H          5.02050        3.62720       -0.21550
H          2.57560        4.78140        0.06460
H          1.14060        2.71590        0.73940
