9
9354	1
C          0.95290       -0.07650       -0.07070
C          2.15830       -0.07170       -0.07030
C          3.59400       -0.06640       -0.06990
N          4.35130        1.04380       -0.06860
N          5.61140        0.63770       -0.06860
C          5.58630       -0.70970       -0.06990
O          4.34630       -1.13820       -0.07070
H         -0.10540       -0.08080       -0.07100
H          6.46310       -1.34310       -0.07030
