16
9358	1
N          0.89750       -0.27000        0.09960
C          2.34520       -0.09530        0.05120
C          2.76230        1.05540        0.92440
C          3.56850        0.96630        1.97660
C          3.78180        2.30820        2.62680
C          2.94210        3.17620        1.73640
C          2.35500        2.42920        0.74850
H          0.64220       -1.08730       -0.50000
H          0.43170        0.57370       -0.30530
H          2.67030        0.09980       -0.99410
H          2.83190       -1.03260        0.39940
H          4.01490        0.04310        2.32330
H          4.84980        2.60830        2.59220
H          3.40410        2.31590        3.67060
H          2.81180        4.24420        1.84890
H          1.70280        2.81630       -0.02290
