13
9384	1
C          1.10620       -0.02780        0.82860
N          2.41640       -0.05170        0.22170
C          3.09480       -1.27220       -0.02970
C          4.33590       -1.41260       -0.59760
N          4.61990       -2.72800       -0.66110
O          3.60520       -3.37700       -0.15740
C          2.66150       -2.55070        0.23720
H          0.75830        1.02140        0.93540
H          1.14740       -0.49500        1.83530
H          0.38420       -0.58080        0.19140
H          2.86890        0.83870       -0.03460
H          4.99040       -0.62290       -0.94170
H          1.72410       -2.84930        0.68700
