15
9363	1
N          0.95760        0.05270        0.12310
C          2.40830       -0.06410        0.02650
C          2.87250        0.36840       -1.33020
C          2.70510        1.61710       -1.89540
C          3.28850        1.55720       -3.14540
N          3.79780        0.32760       -3.35340
H          4.29430        0.00190       -4.21190
C          3.54960       -0.40390       -2.25170
H          0.66490       -0.24120        1.08290
H          0.51640       -0.60680       -0.55900
H          2.71140       -1.11750        0.21780
H          2.88420        0.58470        0.79270
H          2.21570        2.47310       -1.44980
H          3.33860        2.36560       -3.86280
H          3.84370       -1.43820       -2.12860
