11
9302	3
O          0.99880        0.10740        0.05160
C          2.34650        0.08340        0.01850
C          3.03050       -0.59560        0.94200
C          4.47220       -0.72590        1.05430
C          4.63570       -1.52160        2.16830
N          3.36110       -1.84730        2.69070
N          2.46040       -1.32800        2.00310
H          0.50110        0.59860       -0.61630
H          2.87720        0.61950       -0.76360
H          5.24900       -0.30850        0.42730
H          5.57860       -1.84980        2.58420
