13
9381	1
N          2.90400       -0.35070       -1.37130
C          2.47490       -0.06680       -0.00650
C          2.89940        1.31250        0.39280
C          2.55110        2.49920       -0.20840
N          3.14480        3.50450        0.46230
O          3.83110        2.97600        1.43670
C          3.71810        1.66670        1.44000
H          2.57560       -1.30940       -1.62920
H          3.94930       -0.35060       -1.40900
H          2.91170       -0.81820        0.68840
H          1.36740       -0.13130        0.05340
H          1.91240        2.62850       -1.07220
H          4.19360        1.00440        2.15140
