9
9332	1
O          2.12640       -1.10670       -0.50110
C          2.06180        0.00880       -0.01100
C          2.79500        0.31760        1.22000
N          2.78380        1.51510        1.83110
N          3.55760        1.39930        2.89900
C          4.01960        0.13370        2.90980
O          3.55000       -0.52730        1.87870
H          1.45910        0.77350       -0.48960
H          4.68160       -0.27490        3.66130
