10
9320	1
O          2.35300       -1.16890        0.02180
C          2.15040        0.03250        0.08860
C          2.83690        0.84130        1.10130
C          2.70970        2.19540        1.29540
N          3.50520        2.55070        2.32130
C          4.08820        1.39730        2.71410
O          3.68680        0.38010        1.98380
H          1.45970        0.50110       -0.60480
H          2.08570        2.87920        0.73510
H          4.79650        1.32240        3.52820
