10
9345	1
C          0.89650       -0.04950        0.05910
C          2.10190       -0.04410        0.06050
C          3.53900       -0.03840        0.06220
C          4.36600        1.05730        0.06330
N          5.63410        0.59910        0.06490
N          5.57550       -0.72730        0.06480
N          4.31490       -1.13070        0.06320
H          4.00730       -2.12850        0.06280
H         -0.16180       -0.05450        0.05810
H          4.08190        2.10130        0.06300
