12
9421	1
N          0.99640       -0.11090       -0.17510
C          2.41630        0.17840       -0.00780
C          2.84340        1.24870       -0.96090
N          3.35230        2.44200       -0.59900
N          3.59900        3.07980       -1.73250
N          3.25460        2.30430       -2.74730
H          3.34520        2.56290       -3.75430
N          2.78010        1.15460       -2.30120
H          0.72450       -0.84380        0.51950
H          0.83450       -0.50610       -1.13010
H          3.01630       -0.73990       -0.19040
H          2.59820        0.52040        1.03410
