14
9391	3
C          1.03790       -0.22290       -0.00750
C          2.51430        0.15790        0.01340
C          2.83890        1.10270       -1.10230
C          3.33410        2.38080       -0.99150
N          3.47440        2.84880       -2.24120
H          3.82700        3.78940       -2.52430
N          3.08460        1.90240       -3.08160
N          2.69260        0.82640       -2.41270
H          0.82230       -0.92200        0.82790
H          0.77930       -0.72420       -0.96470
H          0.40550        0.68270        0.11320
H          3.13490       -0.75710       -0.09340
H          2.74990        0.63370        0.99000
H          3.57280        2.92650       -0.08810
