19
9485	1
C          0.76930       -0.20390        0.51540
C          2.21480       -0.14870        0.00650
C          3.13270       -0.94840        0.94500
O          4.47280       -0.84320        0.54270
C          2.28800       -0.72550       -1.42370
C          1.75660        0.22720       -2.47730
C          3.25500       -0.09200       -2.40820
H          0.70710        0.21630        1.54190
H          0.39890       -1.25170        0.53470
H          0.10560        0.39670       -0.14240
H          2.54300        0.91560        0.02260
H          2.81950       -2.01780        0.99650
H          3.05550       -0.54450        1.97720
H          4.64160       -1.58140       -0.09920
H          1.91190       -1.75110       -1.63170
H          1.69760        1.31900       -2.27940
H          1.42910       -0.17770       -3.45790
H          3.92510        0.58830       -1.84010
H          3.66730       -0.94140       -2.99350
