10
9450	4
O          0.90400        0.00230        0.08770
C          2.25170       -0.02480        0.11070
C          2.93310       -0.48670       -0.93950
C          4.36890       -0.59950       -1.11400
N          4.54860       -1.09690       -2.28090
N          3.32500       -1.31440       -2.87510
N          2.38260       -0.97610       -2.13470
H          0.40780        0.33650        0.84740
H          2.78500        0.33090        0.98790
H          5.16180       -0.33180       -0.42840
