13
9405	1
C          1.01890        0.08650       -0.16540
N          2.31280        0.33120        0.42590
C          2.98750       -0.67870        1.15640
C          4.21480       -0.55360        1.75720
O          4.48570       -1.70280        2.32650
C          3.47550       -2.51700        2.09590
N          2.51090       -1.91870        1.36520
H          0.66460        0.99850       -0.69080
H          0.28620       -0.17880        0.62590
H          1.08980       -0.74470       -0.89850
H          2.75330        1.25680        0.31450
H          4.85560        0.31810        1.77170
H          3.42330       -3.53870        2.44750
