11
9425	1
C          1.90000       -0.58920        1.25990
O          2.61380       -0.10920        0.18350
C          3.15700       -0.92050       -0.75160
N          3.85810       -0.48320       -1.81210
N          4.20970       -1.57540       -2.47330
N          3.73900       -2.63680       -1.83710
H          3.87220       -3.62510       -2.14450
N          3.07580       -2.26360       -0.75640
H          1.55920        0.26500        1.88040
H          2.54150       -1.24930        1.88240
H          1.00930       -1.15350        0.90910
