10
9423	1
F          1.08350        0.55600        0.09100
C          2.33100       -0.03880        0.11130
C          2.75990       -0.34970       -1.28250
N          2.92150        0.56470       -2.25760
N          3.30540       -0.11950       -3.32390
N          3.37550       -1.40270       -3.01030
H          3.65410       -2.16400       -3.66750
N          3.04170       -1.58090       -1.74410
H          2.28030       -0.97030        0.71340
H          3.06140        0.65420        0.57820
