12
9388	1
O          3.16870        0.94630       -0.53840
C          2.39380       -0.15080       -0.14060
C          2.72960       -0.55040        1.26320
C          3.65640        0.03240        2.10110
C          3.57760       -0.70180        3.26300
O          2.66900       -1.63750        3.09760
N          2.14120       -1.57410        1.90850
H          2.89510        1.15250       -1.46970
H          2.59670       -1.01650       -0.80870
H          1.31500        0.11700       -0.17950
H          4.30320        0.87590        1.89910
H          4.15430       -0.55070        4.16550
