10
9442	1
N          0.94860       -0.01460       -0.08120
C          2.10570       -0.03320       -0.07820
C          3.54230       -0.05590       -0.07410
C          4.39070        1.02930       -0.07180
N          5.66180        0.58040       -0.06760
N          5.63240       -0.74450       -0.06710
H          6.48140       -1.35170       -0.06400
C          4.35460       -1.16470       -0.07110
H          4.10930        2.07420       -0.07300
H          4.04550       -2.20200       -0.07170
