11
9413	1
C          1.21180       -0.44090       -0.38000
O          2.15230        0.39190        0.18620
C          2.86620        0.04690        1.28120
C          3.81560        0.81320        1.90430
O          4.25040        0.09780        2.91480
N          3.62970       -1.04940        2.94690
N          2.76230       -1.11610        1.94680
H          0.76450        0.06200       -1.26180
H          0.40560       -0.66290        0.35180
H          1.68840       -1.38810       -0.71250
H          4.15460        1.80540        1.63820
