9
9481	1
C          1.02800        0.07730       -0.01290
C          2.23340        0.08160       -0.01260
C          3.66890        0.08710       -0.01220
N          4.43140        1.19560       -0.01090
N          5.68250        0.76240       -0.01100
N          5.68040       -0.56080       -0.01220
H          6.53510       -1.15960       -0.01240
N          4.43880       -1.01410       -0.01290
H         -0.03030        0.07370       -0.01320
