9
9451	3
N          0.95840       -0.10150        0.04560
C          2.11560       -0.09620        0.04940
C          3.55170       -0.09000        0.05410
C          4.37420        1.00930        0.05470
N          5.63340        0.54480        0.05990
H          6.51160        1.10880        0.06180
N          5.58400       -0.77900        0.06240
N          4.32350       -1.19190        0.05890
H          4.09160        2.05400        0.05170
