17
9514	1
C          3.37940        1.55930        0.49270
C          2.87450        0.14390        0.21180
C          3.21530       -0.35620       -1.20050
F          2.61240        0.45900       -2.14790
C          4.74000       -0.49730       -1.41490
C          5.22030       -0.48100       -2.79350
N          5.45000        0.69320       -1.90960
H          3.07280        1.86380        1.51550
H          2.94620        2.27760       -0.23510
H          4.48670        1.60210        0.43860
H          1.76900        0.13880        0.32820
H          3.30360       -0.55180        0.96560
H          2.77870       -1.37210       -1.30870
H          5.35420       -1.10590       -0.71780
H          4.55940       -0.17170       -3.63410
H          6.20750       -0.94850       -2.99090
H          4.76950        1.44200       -2.17450
