20
9499	1
C          1.14490       -0.15670       -1.59270
N          2.59910       -0.29440       -1.72250
C          3.23440       -0.84560       -0.50930
C          2.86450       -2.32130       -0.30240
C          4.76830       -0.75940       -0.65890
C          5.32040        0.62640       -0.39230
C          5.60040       -0.52150        0.58820
H          0.74390        0.35220       -2.49510
H          0.88030        0.45340       -0.70130
H          0.65300       -1.14820       -1.53690
H          2.97420        0.67000       -1.88390
H          2.90350       -0.26940        0.38650
H          3.16250       -2.92470       -1.18670
H          1.77760       -2.44810       -0.12810
H          3.38570       -2.71980        0.59450
H          5.26800       -1.20020       -1.54920
H          4.74220        1.36400        0.20440
H          6.31790        0.89820       -0.79780
H          4.93690       -0.65530        1.47010
H          6.50670       -1.15100        0.45570
