13
9551	1
F          2.36240        1.31310       -0.50540
C          2.30550       -0.02170       -0.15260
C          0.91490       -0.34940        0.20730
N         -0.17730       -0.60590        0.49120
C          2.91480       -0.85990       -1.30060
C          2.66380       -2.35140       -1.17400
C          2.04330       -1.55450       -2.33300
H          2.93380       -0.16510        0.75130
H          3.98850       -0.70520       -1.54370
H          1.78430       -2.75690       -0.63110
H          3.36390       -3.05710       -1.66920
H          1.01950       -1.13700       -2.24490
H          2.60080       -1.46240       -3.28960
