18
9504	1
C          0.84420        0.04350        0.32150
C          2.35290       -0.08540        0.08950
C          3.08140       -0.23620        1.43540
O          4.47170       -0.27710        1.25120
C          2.62240       -1.31040       -0.81330
C          2.53930       -1.09650       -2.25490
N          3.86480       -1.25450       -1.60160
H          0.62680        0.92710        0.95890
H          0.44300       -0.86540        0.82000
H          0.31910        0.17950       -0.64820
H          2.69990        0.85460       -0.39640
H          2.72810       -1.14290        1.98120
H          2.85050        0.63490        2.08520
H          4.72290       -1.23210        1.14910
H          2.38300       -2.33980       -0.47100
H          2.45740       -0.06690       -2.67070
H          2.36390       -1.99060       -2.88860
H          4.30180       -0.30660       -1.52560
