16
9526	1
N          0.84270        0.10790       -0.12790
C          2.30280        0.07800       -0.03040
C          2.93710       -0.41690       -1.34260
O          2.49220       -1.70840       -1.65940
C          2.81150        1.48940        0.29100
C          2.94170        1.84140        1.72370
O          4.05790        1.48050        0.92800
H          0.47570       -0.85810       -0.28820
H          0.54580        0.71670       -0.92550
H          2.58930       -0.62470        0.78510
H          4.04890       -0.40790       -1.26860
H          2.66480        0.26350       -2.17800
H          2.99000       -2.33350       -1.07040
H          2.70510        2.33290       -0.42350
H          2.81750        1.05520        2.49730
H          3.05570        2.91260        1.98940
