18
9521	1
C          0.71550       -0.11090        0.28450
C          2.24370       -0.14310        0.16700
C          2.91390        0.51510        1.38700
N          2.52090        1.91620        1.51210
C          2.70880       -1.60290        0.05510
C          2.82080       -2.16690       -1.31020
O          3.95110       -1.72330       -0.57900
H          0.34990        0.93580        0.34320
H          0.37960       -0.66000        1.19040
H          0.25640       -0.58350       -0.61010
H          2.53700        0.42320       -0.74640
H          4.02070        0.45600        1.28190
H          2.62410       -0.02880        2.31340
H          2.86570        2.44500        0.67820
H          2.98600        2.31770        2.35820
H          2.58700       -2.32710        0.88840
H          2.71010       -1.50010       -2.19120
H          2.90190       -3.26880       -1.41370
