15
9547	1
O          1.83460       -1.00400       -0.59290
C          2.65130        0.05870       -0.17200
C          1.95340        1.37720       -0.36310
O          0.82660        1.42890       -0.83150
C          2.96500       -0.12260        1.32020
C          3.99170       -1.21050        1.56470
C          4.34390        0.25980        1.82680
H          1.90310       -1.04630       -1.58280
H          3.59390        0.06790       -0.76920
H          2.45800        2.29640       -0.08260
H          2.13480       -0.23940        2.05080
H          4.69890       -1.52070        0.76570
H          4.04460       -1.69070        2.56450
H          4.83760        0.85670        1.03020
H          4.16680        0.69750        2.83240
