16
9585	1
N          0.97430        0.20840        0.08900
C          2.41360       -0.01150        0.08180
C          2.89500       -0.11950       -1.27530
C          3.29170       -0.20860       -2.39390
C          3.04540        1.16900        0.77070
C          4.46600        1.63730        0.53690
C          3.31080        2.50440        0.10670
H          0.53260       -0.55020       -0.42680
H          0.78010        1.05510       -0.44340
H          2.64320       -0.92030        0.64790
H          3.64930       -0.28630       -3.39460
H          2.70660        1.20530        1.80510
H          5.06560        1.16950       -0.23470
H          5.04060        1.95250        1.40120
H          3.12900        2.61770       -0.95530
H          3.10480        3.39990        0.68260
