13
9574	1
O          0.83300       -0.45670        0.10380
C          2.20010       -0.15750       -0.00960
C          3.03960       -1.37770        0.25600
O          2.52070       -2.44840        0.53150
C          2.47100        0.33940       -1.43110
C          2.40930        1.80300       -1.65250
O          3.63750        1.10870       -1.51720
H          0.61830       -0.46170        1.07340
H          2.47650        0.63210        0.72890
H          4.12140       -1.30620        0.20430
H          2.33050       -0.31260       -2.31940
H          2.31920        2.48930       -0.78430
H          2.34870        2.17030       -2.69790
