14
9571	1
C          1.12440        0.39630        0.19430
C          2.60960        0.08140        0.00100
C          3.03230        0.51050       -1.34550
N          3.36800        0.84560       -2.40130
C          3.43760        0.69900        1.15310
C          4.66680        1.49910        0.88170
O          3.41310        2.10320        1.11000
H          0.51710       -0.10620       -0.58910
H          0.94510        1.49210        0.13340
H          0.78050        0.03440        1.18660
H          2.74300       -1.02020        0.05220
H          3.24850        0.36380        2.19500
H          4.97280        1.75700       -0.15240
H          5.32210        1.73110        1.74630
