16
9549	1
F          1.31740        1.04680        1.11000
C          2.24730        0.27520        0.43100
C          3.31540        1.12260       -0.21220
C          3.34310        2.45630       -0.10600
C          2.90650       -0.69170        1.42310
C          1.97710       -1.82070        1.82090
C          3.21760       -2.10460        0.96430
H          1.71400       -0.27160       -0.37730
H          4.09340        0.62740       -0.78630
H          2.58870        2.99680        0.45600
H          4.13510        3.01870       -0.58970
H          3.39890       -0.29520        2.33780
H          1.12620       -2.11880        1.17140
H          2.16430       -2.36860        2.76850
H          3.12890       -2.12000       -0.14330
H          4.18120       -2.35670        1.45630
