15
9513	1
O          0.98690       -0.46660       -0.71770
C          2.30750       -0.21730       -0.30070
C          3.08350       -1.53420       -0.25560
F          2.47990       -2.41180        0.62700
C          3.03540        0.77540       -1.23890
C          2.61140        0.87690       -2.63300
N          2.24590        1.94400       -1.66410
H          0.46920       -0.72060        0.09060
H          2.30820        0.24120        0.71580
H          4.12590       -1.35210        0.08340
H          3.11050       -1.99810       -1.26510
H          4.08340        1.07050       -1.01880
H          1.68660        0.37350       -2.99230
H          3.34760        1.29910       -3.34840
H          1.23870        1.82510       -1.41020
