16
9554	1
N          1.25840        0.05760       -0.41550
N          2.56700       -0.14160        0.01840
C          2.97310       -1.37850        0.62020
N          2.15960       -2.36510        0.76660
C          3.51690        0.95000       -0.09410
C          4.71340        0.51050       -0.93600
C          3.73190        1.51950       -1.49370
H          0.61110       -0.06100        0.39710
H          1.04080       -0.64310       -1.16020
H          3.99560       -1.49230        0.96720
H          1.17740       -2.32500        0.46240
H          3.96390        1.33400        0.84770
H          4.63440       -0.35910       -1.62340
H          5.67060        1.06850       -0.85500
H          2.89770        1.16380       -2.13550
H          3.89470        2.60520       -1.32610
