15
9555	1
N          1.82790        1.43280       -1.79170
N          2.89100        0.82720       -1.12390
C          3.61760       -0.15830       -1.72500
O          3.36210       -0.51310       -2.86570
C          3.18980        1.23020        0.23960
C          4.62680        1.74360        0.33100
C          3.47180        2.71400        0.46040
H          1.12800        0.69830       -2.04630
H          2.19280        1.88750       -2.66020
H          4.43260       -0.63990       -1.19220
H          3.11880        0.45120        1.02890
H          5.16770        2.07910       -0.58010
H          5.13140        1.77690        1.31990
H          3.12610        3.26360       -0.44100
H          3.03840        2.93170        1.45950
