14
9531	1
O          0.85940       -0.46380       -0.37310
C          2.21650       -0.14380       -0.21700
C          3.07490       -1.38980       -0.44390
F          2.75330       -2.36280        0.48530
C          2.58050        0.93360       -1.24370
C          2.48450        2.34360       -0.79900
O          3.72200        1.65740       -0.87930
H          0.55300       -0.85700        0.48570
H          2.40230        0.24150        0.81470
H          4.15090       -1.13630       -0.33320
H          2.90510       -1.79560       -1.46440
H          2.53440        0.74410       -2.33720
H          2.30190        2.57350        0.27180
H          2.49350        3.13690       -1.57490
