17
9569	1
C          0.72390       -0.05190        0.19180
C          2.24700       -0.13270        0.08760
C          2.87510        0.47150        1.31910
C          3.69380        1.52570        1.24540
C          2.68160       -1.59910       -0.02820
C          2.87590       -2.13890       -1.39460
O          3.96140       -1.72960       -0.58170
H          0.40260        1.00880        0.27180
H          0.35870       -0.60530        1.08420
H          0.25640       -0.49050       -0.71580
H          2.55770        0.43370       -0.82060
H          2.65740        0.03880        2.29200
H          3.93360        1.98310        0.29040
H          4.12960        1.93660        2.15020
H          2.50790       -2.33080        0.78940
H          2.83580       -1.45420       -2.26780
H          2.94360       -3.23990       -1.51430
