15
9527	1
N          0.69550       -0.37500        0.59600
C          2.06180       -0.31600        0.07530
C          3.08680       -0.57960        1.18770
F          2.91340       -1.84110        1.73120
C          2.22170       -1.34480       -1.05290
C          1.95470       -0.87290       -2.43130
O          3.26940       -1.02450       -1.92430
H          0.57330        0.34580        1.34420
H          0.50220       -1.31810        1.00600
H          2.24230        0.71110       -0.31600
H          2.97530        0.17750        1.99260
H          4.11720       -0.50240        0.77990
H          2.14660       -2.43770       -0.87070
H          1.79610        0.20920       -2.62210
H          1.81490       -1.63500       -3.22560
