13
9677	1
N          1.23450       -0.16190       -0.72360
C          2.41410        0.30490       -0.48470
C          2.66720        1.15860        0.69600
O          1.76870        1.44190        1.47280
N          3.50380        0.00920       -1.36100
C          3.66000       -1.26110       -1.96720
C          3.37490        0.09190       -2.76820
H          0.43320        0.03780       -0.10740
H          3.66660        1.54200        0.87440
H          2.81390       -1.93020       -1.70030
H          4.70320       -1.58990       -1.78240
H          2.33240        0.36010       -3.04520
H          4.21960        0.70830       -3.13910
