14
9635	2
N          1.17100       -0.02200       -0.46540
N          2.55640       -0.14330       -0.50760
C          3.20260       -1.39760       -0.29070
N          2.52450       -2.46700       -0.05420
C          4.69970       -1.47420       -0.32860
C          5.31100       -2.42180       -1.29910
O          5.14200       -1.06330       -1.60150
H          0.92160        0.97320       -0.66650
H          0.85730       -0.23640        0.50850
H          3.13280        0.68770       -0.71270
H          1.49590       -2.47000       -0.01680
H          5.30690       -0.92740        0.42260
H          4.63890       -3.02520       -1.94500
H          6.39210       -2.63910       -1.17580
