15
9670	1
C          2.55400        1.21770       -0.50820
C          2.08060        0.00150       -0.20870
C          2.95750       -1.19280       -0.05330
C          2.38800       -2.37190        0.26230
C          4.45950       -1.06150       -0.25780
C          5.32030       -1.25050        0.93920
O          5.13960       -2.27080       -0.00910
H          1.86750        2.05220       -0.60780
H          3.61310        1.39890       -0.65450
H          1.00800       -0.11040       -0.07180
H          1.31360       -2.44760        0.40260
H          2.97640       -3.27480        0.38470
H          4.86230       -0.64580       -1.20500
H          4.84410       -1.56150        1.89300
H          6.36480       -0.88170        0.87580
