13
9632	1
O          1.05660       -0.31430       -0.36110
C          2.43310       -0.05520       -0.43820
C          2.98070        0.39770        0.88840
O          2.24120        0.52120        1.85380
C          4.43860        0.72110        1.02490
C          5.13370       -0.18190        1.98270
O          5.29850       -0.29430        0.58620
H          0.59770        0.56480       -0.41280
H          2.63880        0.71090       -1.21990
H          2.94800       -0.98890       -0.74680
H          4.83550        1.75660        1.07140
H          4.65580       -1.12970        2.31120
H          6.12060        0.12600        2.38660
