17
9604	2
C          0.81640       -0.45940       -0.28540
N          2.22080       -0.12070       -0.22230
C          3.09980       -0.23850       -1.34600
N          2.67540       -0.63990       -2.49500
C          4.55060        0.14040       -1.19720
C          5.17020       -0.72220       -0.10070
C          5.61310       -0.89890       -1.53900
H          0.34270       -0.28800        0.70440
H          0.69560       -1.53030       -0.55330
H          0.30430        0.17920       -1.03580
H          2.60180        0.22090        0.67290
H          1.69590       -0.90470       -2.66530
H          4.79570        1.18230       -0.90000
H          4.74130       -1.71240        0.16770
H          6.08130       -0.36350        0.42390
H          5.12600       -1.67150       -2.17230
H          6.46460       -0.30420       -1.93280
