15
9620	2
N          1.37260       -0.15450        0.97820
N          2.62260       -0.04920        0.37600
C          3.34570       -1.20460       -0.04830
N          2.85970       -2.38820        0.09800
C          4.71350       -1.04150       -0.66230
C          4.97170       -1.66240       -1.96470
N          4.64890       -0.22920       -1.90210
H          1.03110        0.80880        1.19760
H          1.49260       -0.66060        1.88460
H          3.03770        0.88370        0.22870
H          1.93250       -2.55560        0.51310
H          5.54160       -0.63360       -0.04640
H          4.15600       -2.24040       -2.45370
H          6.04170       -1.79740       -2.22540
H          3.66370       -0.12310       -2.24130
