15
9640	1
C          1.13080        0.32380        0.00260
O          2.50090        0.21200        0.13270
C          3.16290       -0.16290        1.26540
C          2.52170       -0.48040        2.40640
C          4.66220       -0.23120        1.22290
C          5.27530        1.09790        0.95070
O          5.30980        0.50060        2.22790
H          0.89120        0.64760       -1.03090
H          0.73780        1.08480        0.71020
H          0.64490       -0.65830        0.18560
H          1.44080       -0.44890        2.48150
H          3.08360       -0.77930        3.28640
H          5.22410       -1.04690        0.72200
H          4.67830        2.02810        1.06560
H          6.32800        1.13960        0.60160
