16
9643	1
N          1.52670        0.45540        0.86940
C          2.97010        0.33370        0.68160
C          3.45920       -1.10020        0.69500
N          2.64770       -2.09970        0.81400
N          4.86510       -1.32770        0.57060
C          5.53960       -2.28940        1.36110
C          5.39320       -2.37130       -0.22750
H          1.26900        1.46580        0.79510
H          1.28680        0.14920        1.84080
H          3.48970        0.89580        1.48910
H          3.24970        0.78550       -0.29380
H          1.62860       -1.98710        0.90140
H          4.81970       -2.83450        2.00910
H          6.41570       -1.78310        1.81660
H          4.57370       -2.97420       -0.67400
H          6.17180       -1.92590       -0.88080
