15
9629	1
O          2.81420        0.50910        1.09030
C          2.35200        0.02320       -0.13870
C          2.85890       -1.38120       -0.33940
C          1.98640       -2.39650       -0.49310
C          4.36060       -1.59220       -0.36900
C          4.95180       -2.37850        0.74530
O          4.70410       -2.95130       -0.51330
H          2.51810        1.45490        1.14210
H          2.74290        0.65470       -0.96740
H          1.23910        0.05690       -0.15170
H          0.91590       -2.21660       -0.47080
H          2.32310       -3.41660       -0.64330
H          4.99360       -1.01050       -1.07100
H          4.27040       -2.84400        1.48850
H          6.04850       -2.30180        0.89470
