13
9618	1
F          2.26310        1.17880        2.58120
C          1.73550        1.26780        1.30530
C          2.80570        1.18660        0.25350
O          2.48100        1.24830       -0.92370
C          4.26540        1.01970        0.63770
C          5.26830        0.82870       -0.41670
N          5.07970        2.16670        0.16880
H          1.19840        2.23470        1.20920
H          1.01210        0.43830        1.15980
H          4.54300        0.84090        1.69730
H          4.95140        0.81180       -1.48370
H          6.24120        0.41110       -0.08420
H          4.56010        2.74480       -0.53350
