11
9674	1
O          2.95530        1.05180       -0.34900
C          2.42290        0.06140       -0.82440
C          2.99700       -1.27990       -0.60550
O          2.43690       -2.25650       -1.07790
C          4.24670       -1.46400        0.20660
C          5.38120       -2.17270       -0.44390
O          5.30510       -0.77260       -0.41600
H          1.51630        0.17150       -1.41080
H          4.26260       -1.19560        1.28350
H          5.25620       -2.52340       -1.49020
H          6.20870       -2.50790        0.21490
