16
9664	1
C          2.39340        1.08730       -0.48350
C          1.97290        0.01090        0.19210
C          2.86410       -1.13020        0.55100
C          2.32870       -2.21320        1.13540
C          4.35370       -1.11230        0.24690
C          5.17320       -0.01950        0.78890
N          5.16080       -1.31520        1.47850
H          1.69190        1.88080       -0.71990
H          3.41930        1.19150       -0.81560
H          0.92490       -0.03390        0.47730
H          1.26630       -2.26040        1.35620
H          2.94950       -3.06510        1.39710
H          4.75640       -1.81180       -0.51530
H          4.68160        0.76760        1.40500
H          6.15250        0.13570        0.29090
H          4.58310       -1.19340        2.34400
