14
9660	1
C          2.60000       -1.21630       -0.38750
C          2.14070        0.00300       -0.05620
C          0.72870        0.22410        0.03000
N         -0.41590        0.39790        0.09830
C          2.99830        1.14980        0.29650
C          4.13630        1.54670       -0.61680
C          2.91850        2.42100       -0.52010
H          1.92570       -2.03760       -0.61750
H          3.66430       -1.42080       -0.43410
H          3.16460        1.26560        1.36380
H          4.29020        1.00910       -1.54540
H          5.05130        1.90200       -0.15480
H          2.26070        2.46230       -1.38130
H          3.01170        3.36410        0.00790
