16
9596	1
C          0.95520        0.02120       -0.11770
C          2.48710       -0.00250       -0.09440
C          2.96850       -1.24440       -0.65210
C          3.36520       -2.26800       -1.11180
N          2.95840        1.26200       -0.70020
C          4.37170        1.31790       -1.04840
C          3.30070        1.24780       -2.11490
H          0.54170       -0.84640        0.41000
H          0.56540       -0.00010       -1.14270
H          0.56590        0.92020        0.37410
H          2.78900        0.03280        0.96050
H          3.71910       -3.18530       -1.52280
H          4.99820        0.45130       -0.88050
H          4.85990        2.27090       -0.88370
H          3.19070        0.33740       -2.68900
H          3.07320        2.15480       -2.66260
