14
9609	2
O          2.36920       -1.30770        2.68870
N          3.39580       -0.49650        2.39170
C          3.85880       -0.40720        1.12050
O          3.34210       -1.07780        0.23680
C          5.01730        0.51590        0.80710
C          5.57690        0.59360       -0.61010
C          4.52190        1.58770       -0.15890
H          2.79020       -2.14570        3.01080
H          3.82590        0.06730        3.14040
H          5.46930        1.09340        1.64250
H          5.28520       -0.34570       -1.12560
H          6.65220        0.83450       -0.46960
H          3.67480        1.40160       -0.85440
H          5.04140        2.56910       -0.19410
