17
9731	1
F          4.82330        2.25050        1.86030
C          3.79870        2.04520        2.76700
C          2.86210        0.94110        2.27330
C          3.56360       -0.40980        2.06990
C          4.09650       -0.99280        3.39250
C          5.14560       -1.99970        3.27000
N          5.47910       -0.63070        3.74360
H          3.22500        2.98970        2.87600
H          4.22660        1.78700        3.75760
H          2.42770        1.26100        1.30130
H          2.02900        0.81800        2.99940
H          4.36300       -0.30940        1.30250
H          2.81270       -1.12540        1.67200
H          3.43540       -1.12110        4.27590
H          5.65570       -2.17740        2.29630
H          5.28670       -2.69330        4.12530
H          5.92960       -0.11420        2.95250
