17
9753	2
N          4.31060        1.31430        1.57070
C          3.60580        0.59820        2.37030
N          3.32320       -0.76790        2.08270
C          3.79550       -1.44030        0.88660
C          4.70610       -2.61210        1.27660
C          3.93460       -3.82300        1.75960
C          4.67690       -3.86080        0.41600
H          4.50830        2.30120        1.79010
H          3.21730        1.03910        3.28400
H          2.75200       -1.30050        2.75570
H          4.38210       -0.75850        0.23670
H          2.91490       -1.78190        0.29930
H          5.58560       -2.43900        1.93400
H          2.86660       -3.96460        1.48790
H          4.45210       -4.57940        2.38670
H          4.12750       -3.61390       -0.51780
H          5.73030       -4.21190        0.38010
