17
9755	1
C          1.18450        0.04360       -0.13140
N          2.45370       -0.15520       -0.08670
N          3.08240       -0.50540        1.08640
C          4.51060       -0.71850        1.09400
C          4.98420       -1.12640        2.49700
C          6.49060       -1.03750        2.63170
C          5.58560       -0.06460        3.39830
H          0.71610        0.31860       -1.06990
H          0.57050       -0.05960        0.75880
H          2.53730       -0.61400        1.95750
H          5.01430        0.21090        0.74710
H          4.75960       -1.53590        0.38380
H          4.64550       -2.09020        2.93510
H          7.08900       -0.38010        1.96500
H          6.99960       -1.62410        3.42550
H          5.33710        0.92320        2.95400
H          5.23310       -0.32730        4.41850
