15
9846	1
C          3.93900       -0.20890        1.02490
O          3.03540        0.32520        0.12790
C          3.32330        0.71230       -1.14680
C          4.55290        0.61170       -1.68670
C          4.81030        1.04890       -3.09810
C          4.51900        2.46570       -3.45000
O          5.80430        2.04720       -3.07840
H          3.41640       -0.42530        1.97910
H          4.75570        0.51680        1.22700
H          4.35870       -1.15860        0.62980
H          2.51640        1.11950       -1.74890
H          5.38190        0.20390       -1.11830
H          5.11520        0.30390       -3.86190
H          4.10770        3.13210       -2.66260
H          4.51040        2.72130       -4.52970
