14
9871	1
N          2.74800       -0.44280        1.32770
C          2.89750       -0.09030        0.10080
N          3.86440        0.88530       -0.27790
C          4.63430        1.49240        0.56480
N          5.58960        2.45850        0.12370
C          5.29250        3.39850       -0.89270
C          6.39200        2.24730       -1.02350
H          2.04620       -1.15140        1.58590
H          2.27920       -0.54480       -0.66750
H          4.57020        1.27840        1.62750
H          5.57820        4.40000       -0.51040
H          4.27040        3.22970       -1.29500
H          7.44370        2.44600       -0.73120
H          6.12560        1.28550       -1.51290
