18
9835	1
C          1.80530        0.03480       -1.12600
C          2.90810       -0.20080       -0.10070
C          3.15350        1.04930        0.69970
C          4.35050        1.65420        0.70670
C          4.58450        2.90330        1.51710
C          5.16710        4.05280        0.82210
N          3.71660        4.01950        1.06740
H          1.62440       -0.89870       -1.69990
H          2.10480        0.83690       -1.83440
H          0.86150        0.32920       -0.61880
H          3.82830       -0.52600       -0.63430
H          2.60030       -1.01380        0.59070
H          2.33580        1.46550        1.28250
H          5.17560        1.24300        0.13210
H          4.53110        2.86420        2.62570
H          5.39210        3.96440       -0.26520
H          5.63910        4.81870        1.47170
H          3.25420        3.80230        0.15270
