19
9796	1
C          1.43730        1.45440        0.81340
C          2.73740        0.71570        0.69450
C          2.86010       -0.55710        1.10180
C          4.16190       -1.29800        0.98280
C          4.63490       -1.71640        2.37990
C          4.35670       -3.13240        2.84980
C          5.74080       -2.75030        2.31130
H          1.10750        1.77820       -0.19550
H          1.58350        2.35060        1.45120
H          0.63910        0.82530        1.26290
H          3.58970        1.23640        0.26730
H          2.00590       -1.07630        1.52860
H          4.94830       -0.66220        0.52000
H          4.00260       -2.17670        0.32020
H          4.92660       -0.93890        3.11910
H          3.59770       -3.56380        2.16230
H          4.14000       -3.03190        3.93470
H          5.86870       -3.39590        1.41600
H          6.41930       -2.87730        3.18130
