14
9864	1
C          2.08270       -0.74500        0.15840
N          3.27190       -0.27090        0.07560
N          3.51660        0.87180       -0.64470
C          4.70730        1.34480       -0.73210
C          4.96660        2.59250       -1.52990
C          4.20180        3.79700       -1.19450
N          5.57140        3.64620       -0.67940
H          1.90110       -1.64810        0.73040
H          1.25230       -0.25140       -0.33940
H          5.53720        0.84160       -0.24200
H          5.57900        2.53170       -2.45340
H          3.45260        3.74440       -0.37200
H          4.17720        4.58220       -1.97820
H          5.49480        3.40880        0.33850
