14
9814	1
F          0.57270        0.24150        0.67570
C          1.83720       -0.13870        0.99490
C          2.83530        0.74890        0.93830
C          4.24830        0.37000        1.28280
C          4.74380        1.24330        2.43460
C          4.65830        0.67260        3.79900
O          5.86780        0.69280        3.06210
H          2.02140       -1.16590        1.29450
H          2.62250        1.77020        0.63540
H          4.89120        0.55010        0.39580
H          4.32400       -0.71050        1.54160
H          4.82860        2.34650        2.33850
H          4.36270       -0.38940        3.93180
H          4.77620        1.36350        4.65930
