15
9841	1
C          3.58250       -1.01190        0.47130
O          4.46590       -0.31780       -0.31840
N          4.10420        0.81140       -0.89140
C          4.92650        1.45280       -1.64270
C          4.55580        2.75800       -2.31600
C          3.57090        2.70270       -3.39690
N          3.16030        3.20150       -2.07200
H          4.07730       -1.92670        0.85710
H          2.69230       -1.30600       -0.12440
H          3.26510       -0.38230        1.32950
H          5.92800        1.06230       -1.80030
H          5.21240        3.64290       -2.18340
H          3.08100        1.72880       -3.62640
H          3.59420        3.54500       -4.11890
H          2.55320        2.46250       -1.65080
