15
9860	1
C          3.75380       -0.00870        1.91480
N          3.51280        0.29870        0.69270
N          4.35500        1.13850        0.00740
C          4.11300        1.44850       -1.21590
C          5.04240        2.35950       -1.96660
C          4.44770        3.60880       -2.60300
C          5.11250        3.70090       -1.24270
H          3.08140       -0.67310        2.44600
H          4.62610        0.38960        2.42580
H          3.24240        1.04110       -1.72380
H          6.10320        2.05520       -2.09430
H          3.35030        3.44280       -2.67150
H          5.04960        3.76050       -3.52420
H          4.29360        4.04140       -0.57190
H          5.98810        4.36370       -1.41050
