15
9858	1
O          4.15230        1.98510       -0.81510
C          3.79140        0.84560       -0.57080
C          4.54200        0.02780        0.39670
C          4.16130       -1.22680        0.67950
C          4.91550       -2.07120        1.67440
C          5.40520       -3.43730        1.21180
C          6.35560       -2.25560        1.20140
H          2.91610        0.44300       -1.07150
H          5.41480        0.45380        0.88500
H          3.28350       -1.65010        0.19870
H          5.00440       -1.71660        2.72370
H          4.83380       -3.69170        0.29240
H          5.32830       -4.07800        2.11590
H          6.63040       -2.14570        0.12970
H          7.13950       -2.52710        1.94020
