18
9917	1
C          1.18820       -0.48190        0.45730
C          2.50520        0.01040       -0.13020
C          3.07710        1.13970        0.74440
C          4.23760        1.94230        0.17470
C          4.70560        1.80050       -1.27700
C          2.85920        2.59040        0.28910
F          2.66760        3.38260        1.40670
H          0.78960       -1.31250       -0.16270
H          0.44290        0.34200        0.47210
H          1.34170       -0.85360        1.49300
H          2.30770        0.33000       -1.17280
H          3.22870       -0.83240       -0.14550
H          3.28110        0.94210        1.81950
H          4.95040        2.34440        0.92680
H          3.89750        1.55100       -1.99130
H          5.49020        1.01780       -1.33010
H          5.14820        2.76440       -1.60390
H          2.09710        2.58880       -0.51930
