18
9914	1
C          1.05010        0.17650       -0.04220
C          2.57830        0.07940        0.00820
C          3.32350       -0.77370       -1.03630
O          2.42100       -1.46170       -1.85450
C          3.26270        0.75620       -1.15520
C          4.62260        1.41000       -0.89250
N          4.44070        2.82960       -0.61330
H          0.61510       -0.61140        0.60670
H          0.63930        0.06220       -1.06790
H          0.73810        1.16830        0.34620
H          3.10370        0.26230        0.97090
H          4.03530       -1.38510       -0.44130
H          2.84670       -1.47940       -2.74940
H          2.66390        1.06020       -2.04200
H          5.26430        1.28400       -1.79210
H          5.14260        0.93580       -0.03020
H          4.02770        3.29450       -1.45450
H          5.37940        3.25730       -0.44250
