19
9907	1
C          1.02730        0.16560       -0.19160
C          2.55550        0.10690       -0.10320
C          3.35070       -0.75700       -1.09310
C          2.60430       -1.57030       -2.15540
C          3.30610        0.76240       -1.26260
C          4.59590        1.49540       -0.88330
O          4.30410        2.81430       -0.51280
H          0.59780       -0.71880        0.32280
H          0.63780        0.20790       -1.22740
H          0.67820        1.08080        0.32970
H          3.04460        0.14800        0.89440
H          4.25300       -1.19130       -0.61010
H          1.76850       -1.02420       -2.63470
H          2.21500       -2.50210       -1.69560
H          3.32060       -1.84520       -2.95700
H          2.67800        1.12300       -2.10630
H          5.30310        1.48150       -1.74280
H          5.11870        1.00220       -0.03530
H          4.14700        3.31810       -1.35390
