16
9972	1
C          0.94200        0.10850       -0.07050
C          2.46850       -0.02710       -0.04180
C          3.26250       -0.70360       -1.16530
C          2.50660       -1.43410       -2.28160
C          3.12980        0.81540       -1.14110
C          4.39840        1.45980       -0.77370
N          5.39800        1.96460       -0.48180
H          0.50880       -0.60010        0.66490
H          0.48170       -0.09030       -1.05530
H          0.66290        1.13900        0.23480
H          2.98490        0.15690        0.92630
H          4.16260       -1.18640       -0.72500
H          1.65320       -0.86300       -2.69730
H          2.14810       -2.41570       -1.90850
H          3.21110       -1.61330       -3.12010
H          2.50630        1.21430       -1.97030
