18
9925	1
C          1.25510       -0.38210        0.02580
C          2.72480        0.00820       -0.07660
C          3.17270        0.68810        1.23000
C          4.52420        1.38760        1.22680
N          5.24210        1.58570       -0.03470
C          3.23000        2.21820        1.26780
O          2.83690        2.63930        2.54120
H          0.93650       -0.89080       -0.90820
H          0.62730        0.52310        0.17100
H          1.09750       -1.07520        0.87970
H          2.83560        0.66100       -0.96540
H          3.33090       -0.90970       -0.23080
H          3.08680        0.12190        2.18310
H          5.09750        1.52970        2.16790
H          4.63620        1.84040       -0.84460
H          5.77620        0.71620       -0.25430
H          2.63120        2.58110        0.40480
H          3.39420        3.43620        2.73260
