17
9929	1
C          3.02280        1.03130        0.10550
C          2.30590       -0.31340        0.09240
C          3.31970       -1.44810        0.33100
C          2.82170       -2.87180        0.10740
N          1.51510       -3.09250       -0.51900
C          3.82140       -2.24710       -0.87390
F          5.14860       -2.57100       -0.65460
H          2.28640        1.84970       -0.04070
H          3.77220        1.07390       -0.71350
H          3.53630        1.18650        1.07860
H          1.77690       -0.40290       -0.87780
H          1.55350       -0.32480        0.90980
H          3.91760       -1.44550        1.26810
H          3.29470       -3.73240        0.62670
H          1.31600       -2.47320       -1.33590
H          0.77390       -2.97250        0.20790
H          3.55050       -1.67590       -1.78760
