14
9976	1
C          0.98050        0.08270        0.06550
C          2.51010       -0.06280        0.09920
C          3.28130       -0.66950       -1.08530
O          2.37670       -1.40540       -1.87160
C          3.11130        0.84900       -0.95980
C          4.39980        1.46320       -0.60310
N          5.41170        1.94990       -0.32190
H          0.54170       -0.59970        0.82080
H          0.52570       -0.15690       -0.91840
H          0.69650        1.12390        0.32620
H          3.02690        0.14120        1.06200
H          4.13670       -1.23120       -0.64750
H          2.03420       -0.81390       -2.58950
H          2.56570        1.22100       -1.85310
