10
9901	1
N          1.00300        0.06740       -0.06790
C          2.15770        0.00390       -0.02890
C          3.56660       -0.07360        0.01900
C          4.76950       -0.13990        0.06060
C          6.23160       -0.22090        0.11390
C          6.89020       -0.90380       -1.02690
O          6.78430        0.49750       -0.95940
H          6.79050        0.01050        1.04410
H          6.26550       -1.26380       -1.87210
H          7.95700       -1.18440       -0.90610
