17
9926	1
N          3.33370       -0.28700        1.01390
C          2.29870       -0.11520        0.00130
C          2.94740        0.35160       -1.31330
C          2.00960        0.78930       -2.43040
N          0.58090        0.96500       -2.15800
C          2.85330        1.83500       -1.68310
O          4.04000        2.20430       -2.32230
H          2.88740       -0.63890        1.89150
H          3.76290        0.64350        1.22450
H          1.53630        0.59150        0.38960
H          1.80890       -1.09610       -0.17920
H          3.73700       -0.28320       -1.77150
H          2.32430        0.73530       -3.49460
H          0.36540        1.40070       -1.23510
H          0.11230        0.03490       -2.22680
H          2.58430        2.38100       -0.75340
H          3.76770        2.86250       -3.01170
