16
9927	1
N          0.91230        0.06310       -0.50850
C          2.34500        0.04770       -0.24070
C          3.10140       -0.86290       -1.22920
O          2.35630       -1.34530       -2.31110
C          3.19280        0.65690       -1.33410
C          4.44000        1.34470       -0.76640
O          4.09700        2.58450       -0.21090
H          0.50250        0.87310        0.00840
H          0.49580       -0.80990       -0.11190
H          2.69300       -0.21740        0.78140
H          4.14190       -1.23850       -1.12430
H          1.87350       -2.13650       -1.95990
H          2.58370        1.16240       -2.11600
H          5.19440        1.47960       -1.57310
H          4.92580        0.72990        0.02270
H          3.91880        3.19740       -0.97130
