20
9969	1
C          2.29110        1.14930        0.22670
C          2.16130       -0.34540       -0.02840
N          2.82750       -0.67380       -1.30550
C          2.73800       -2.10080       -1.74160
C          2.06860       -3.11390       -0.79750
C          1.87700       -1.09760       -2.36880
C          2.31500       -0.59470       -3.74080
H          1.82420        1.40710        1.20080
H          1.77910        1.71770       -0.57880
H          3.36230        1.44180        0.25380
H          1.07800       -0.59220        0.00140
H          2.67200       -0.88200        0.80030
H          3.68630       -2.38960       -2.24320
H          1.09950       -2.77360       -0.38090
H          2.76250       -3.35920        0.03320
H          1.86650       -4.04350       -1.36860
H          0.80210       -1.04580       -2.08880
H          3.41720       -0.64620       -3.87730
H          1.99480        0.46120       -3.85990
H          1.82730       -1.20740       -4.52690
