17
10011	1
C         -1.65230        0.71460       -0.31120
C         -0.34850        1.20360        0.28740
C          0.50620        0.10110       -0.23460
C          1.95120        0.19570       -0.73480
C          1.71430       -0.04510        0.71990
C         -0.35070       -1.14560       -0.11480
O         -1.69560       -0.69580       -0.15970
H         -1.68280        0.94290       -1.40190
H         -2.51710        1.20790        0.18060
H         -0.43390        1.14320        1.39790
H         -0.06680        2.23010       -0.03040
H          2.04910        1.23420       -1.11740
H          2.06590       -0.66450       -1.42840
H          2.16030        0.84790        1.20970
H          2.18110       -1.03820        0.89830
H         -0.20560       -1.66750        0.85790
H         -0.14270       -1.83850       -0.95700
