19
10050	1
C         -1.24310       -0.76630       -0.52570
C         -1.24580        0.76510       -0.52050
C          0.00430        1.10340        0.30560
C          1.25650        0.76950       -0.51920
C          1.25920       -0.76190       -0.52430
C          0.00820       -1.10570        0.29830
C          0.00570       -0.00470        1.34930
H         -1.23040       -1.22210       -1.53930
H         -2.14420       -1.12420        0.02170
H         -2.14810        1.11590        0.02940
H         -1.23500        1.22780       -1.53100
H          0.00220        2.15860        0.65350
H          2.15700        1.12370        0.03150
H          1.24490        1.23210       -1.52980
H          2.16090       -1.11640        0.02430
H          1.24950       -1.21780       -1.53790
H          0.00990       -2.16320        0.63910
H          0.91350       -0.00520        1.99540
H         -0.90280       -0.00840        1.99440
