17
10085	1
C         -1.49150        0.76280        0.08000
C         -1.49240       -0.76290       -0.08250
C         -0.20940       -1.41980        0.43060
O          0.85330       -1.10320       -0.44780
C          1.62120       -0.00250        0.00420
O          0.85350        1.09940        0.45350
C         -0.20570        1.41770       -0.42860
H         -1.60330        1.02540        1.15520
H         -2.37140        1.16770       -0.46500
H         -1.60080       -1.02530       -1.15810
H         -2.37490       -1.16650        0.45940
H         -0.34280       -2.52160        0.39280
H         -0.00670       -1.16940        1.49830
H          2.28690        0.33350       -0.81950
H          2.28340       -0.33950        0.83020
H          0.00040        1.16700       -1.49570
H         -0.33750        2.51960       -0.39130
