19
10086	1
C         -1.47220        0.73270        0.12820
C         -1.47530       -0.78530       -0.09100
N         -0.27080       -1.45550        0.42590
C          0.88480       -1.19500       -0.44510
C          1.70410        0.00140        0.04590
N          0.92900        1.21090        0.35990
C         -0.26090        1.47130       -0.45670
H         -1.53130        0.95710        1.21600
H         -2.39490        1.12870       -0.34960
H         -1.61450       -1.01110       -1.17300
H         -2.36900       -1.19270        0.43110
H         -0.46910       -2.48210        0.36780
H          0.57550       -1.04540       -1.50410
H          1.56580       -2.07570       -0.45150
H          2.48110        0.22450       -0.71910
H          2.23030       -0.29200        0.97970
H          1.57990        2.03000        0.31540
H         -0.09530        1.25910       -1.53560
H         -0.49400        2.55580       -0.36740
