12
10006	1
O          1.13180        0.10480       -0.08050
C          2.52340        0.02030        0.02300
C          3.26440       -0.57770       -1.17540
F          2.34190       -1.20030       -2.00090
C          3.12590        0.92910       -1.03610
C          4.43420        1.51740       -0.71900
C          5.49780        2.01990       -0.45510
H          0.79490       -0.75760        0.27230
H          2.98180        0.30450        0.99570
H          4.06120       -1.19970       -0.71400
H          2.57030        1.28400       -1.93070
H          6.42650        2.46420       -0.21020
