18
10074	1
C          0.37210       -0.41880       -1.52750
C          0.24870       -1.87070       -1.05680
C          1.50740       -1.07710       -0.76270
C          1.64880       -0.79020        0.73740
C          2.81720        0.18190        0.95500
C          2.50430        1.60590        0.99490
N          2.80770        0.87580        2.25360
H         -0.02620        0.40050       -0.89100
H          0.79790       -0.19670       -2.52910
H          0.18710       -2.46060       -1.99580
H         -0.61590       -1.85650       -0.35880
H          2.34420       -1.56330       -1.30990
H          1.88580       -1.74040        1.26130
H          0.69920       -0.39560        1.16560
H          3.84870       -0.09020        0.64570
H          1.44550        1.94980        1.01310
H          3.33990        2.30800        0.79360
H          1.90460        0.70420        2.75380
