13
10067	1
C          0.40400        1.34050        0.41730
O          1.28710        0.25230        0.21190
C          0.53600       -0.59190       -0.64990
O         -0.29180        0.28160       -1.39690
C         -0.87020        0.87280       -0.26710
C         -1.37930       -0.33180        0.45340
C         -0.47200       -1.29200        0.18660
H          0.80960        2.23500       -0.10460
H          0.24140        1.55680        1.49560
H          1.18460       -1.24780       -1.26720
H         -1.62720        1.66660       -0.43970
H         -2.32080       -0.46640        0.96880
H         -0.54520       -2.34010        0.44390
