15
10068	1
C         -0.04560        0.02560       -1.34480
C          0.01340       -1.13430       -0.31640
C          1.22640       -0.66810        0.43980
C          1.19090        0.70830        0.46860
C         -0.04540        1.14270       -0.26860
C         -1.21450        0.64490        0.53500
C         -1.17900       -0.73150        0.50610
H         -0.96750        0.01500       -1.97410
H          0.83960        0.06260       -2.02390
H          0.03260       -2.19760       -0.63390
H          2.03000       -1.28070        0.82580
H          1.96230        1.34480        0.88090
H         -0.08120        2.21800       -0.54120
H         -1.99450        1.24050        0.98990
H         -1.92680       -1.38500        0.93480
