16
9993	1
C          1.13230       -0.23550        0.13920
C          2.65750       -0.18190        0.02500
C          3.32430       -0.81500       -1.13220
C          2.49310       -1.39140       -2.24080
O          2.51040       -2.59310       -2.44850
N          3.10540        0.66450       -1.09220
C          4.32550        1.40950       -0.73620
H          0.83700       -1.17360        0.65320
H          0.61980       -0.18370       -0.84380
H          0.78800        0.62640        0.74740
H          3.26480       -0.13640        0.95670
H          4.41510       -1.03450       -1.15790
H          1.87970       -0.74980       -2.86700
H          4.87550        1.66350       -1.66600
H          5.02260        0.85910       -0.06290
H          4.03750        2.35890       -0.23850
