17
10073	1
C         -0.09890        0.47860       -0.29020
C         -0.68280       -0.90590       -0.09870
C          0.81990       -0.73810       -0.26160
O          1.41370       -1.03380        0.97500
C          2.66470       -0.39810        0.97080
C          3.54410       -1.11350        1.98450
C          3.84500       -1.24430        0.50570
H          0.17750        1.09070        0.59540
H          0.03290        0.88820       -1.31400
H         -1.31780       -1.06540       -0.99620
H         -1.14660       -0.87240        0.91070
H          1.05680       -1.41380       -1.11210
H          2.69720        0.65920        1.31270
H          3.30140       -2.14820        2.30910
H          4.43280       -0.59460        2.40320
H          3.40790       -2.08420       -0.07640
H          4.51820       -0.51340        0.00990
