16
9996	1
C          0.98130        0.03180        0.11790
C          2.49880        0.11670       -0.04340
C          3.27540       -0.65200       -1.16540
C          2.57740       -1.54930       -2.18690
N          2.84660        0.70950       -1.30250
C          3.77430        1.69930       -1.33890
O          3.62110        2.64530       -2.09280
H          0.74510       -0.69480        0.92220
H          0.44520       -0.26860       -0.80070
H          0.59580        1.02770        0.42000
H          3.08150        0.54390        0.80370
H          4.38080       -0.74510       -1.07060
H          1.50950       -1.31100       -2.34230
H          2.66410       -2.60490       -1.85770
H          3.08890       -1.44370       -3.16610
H          4.65630        1.66180       -0.70300
