15
10078	1
C          0.24300       -2.46440       -0.55040
O          1.62070       -2.54960       -0.87130
C          1.10750       -1.26610       -0.65090
C          1.60030       -0.66000        0.66240
C          3.00490       -0.09020        0.46900
C          3.11160        1.35480        0.16030
O          3.33080        0.84150        1.46200
H          0.10020       -2.96080        0.43250
H         -0.32800       -2.77240       -1.45070
H          1.04730       -0.67170       -1.58700
H          1.64010       -1.42220        1.47130
H          0.88300        0.12970        0.97560
H          3.87010       -0.74020        0.22010
H          2.20340        1.99230        0.19820
H          4.08240        1.73370       -0.22080
