13
10124	1
C         -1.44680        0.60760        0.25550
C         -1.40010       -0.78720       -0.31840
C         -0.28070       -1.53140        0.32550
N          0.94520       -1.13020        0.35150
N          1.46220        0.03340       -0.19480
C          0.85050        1.14040       -0.48840
O         -0.47690        1.38760       -0.32470
H         -1.35500        0.59830        1.36450
H         -2.42350        1.07060        0.00050
H         -1.29890       -0.74930       -1.42490
H         -2.33960       -1.32630       -0.06870
H         -0.52450       -2.45640        0.83880
H          1.44540        1.93720       -0.92040
