18
10176	1
C         -1.61210        0.81740        0.02940
C         -1.55020       -0.73070       -0.01710
C         -0.18380       -1.22690        0.50540
N          0.80080       -0.55720       -0.35110
C          2.06450        0.03850        0.03040
C          0.84490        0.84920        0.18640
C         -0.33280        1.46270       -0.57560
H         -1.67690        1.12210        1.09790
H         -2.52570        1.18780       -0.48230
H         -1.64310       -1.04700       -1.07990
H         -2.39190       -1.17850        0.55290
H         -0.11240       -2.32570        0.36310
H         -0.05330       -1.02450        1.59410
H          2.67020        0.27310       -0.86880
H          2.48640       -0.46180        0.92880
H          0.72360        0.98310        1.28850
H         -0.25010        1.27520       -1.66970
H         -0.36730        2.55950       -0.40560
