14
10146	1
C          1.02840        1.19880       -0.02290
O         -0.29050        1.24510        0.38390
N         -1.26300        0.72320       -0.34310
C         -1.43480       -0.55060       -0.37920
C         -0.52750       -1.44410        0.40890
C          0.88640       -1.35270       -0.10000
C          1.56810       -0.19930       -0.26260
H          1.65580        1.69470        0.74630
H          1.12460        1.77140       -0.97000
H         -2.25180       -0.97040       -0.95660
H         -0.86840       -2.49900        0.34000
H         -0.56490       -1.13630        1.47620
H          1.38750       -2.28150       -0.35800
H          2.58920       -0.26830       -0.62620
