13
10151	1
C          0.95510       -1.31470        0.03080
C         -0.51500       -1.53240        0.02280
C         -1.48040       -0.62200        0.00150
C         -1.36570        0.84170       -0.02000
N         -0.30120        1.56800       -0.02290
N          1.03140        1.20600       -0.00720
C          1.58650        0.04230        0.01480
H          1.35360       -1.85320       -0.85510
H          1.33980       -1.82570        0.93870
H         -0.82950       -2.57310        0.03640
H         -2.49830       -1.00300       -0.00040
H         -2.31270        1.37130       -0.03530
H          2.67190        0.02830        0.02340
