17
10093	1
C          1.65310       -0.05570        0.08140
C          0.77790       -1.23920        0.53260
C         -0.41440       -1.47370       -0.39450
C         -1.51600       -0.49140       -0.05730
C         -1.36860        0.84680        0.07050
O         -0.20390        1.53140       -0.11550
C          0.93710        1.04760       -0.71670
H          2.43360       -0.43790       -0.61330
H          2.17730        0.34960        0.97360
H          0.38110       -1.06850        1.55890
H          1.43520       -2.13410        0.58810
H         -0.83220       -2.48690       -0.21070
H         -0.10190       -1.43650       -1.45930
H         -2.49470       -0.90730        0.16650
H         -2.24040        1.41930        0.37070
H          1.65330        1.88340       -0.86380
H          0.66780        0.68480       -1.73220
