15
10139	1
C          1.11470        1.16930        0.08570
N         -0.30340        1.35110        0.35880
C         -1.29390        0.69810       -0.43000
N         -1.37640       -0.58590       -0.48450
C         -0.50570       -1.45130        0.27140
C          0.91300       -1.36420       -0.18270
C          1.61690       -0.22550       -0.22640
H          1.70470        1.57520        0.93470
H          1.35150        1.78470       -0.80930
H         -0.54600        2.31960        0.61600
H         -2.07780        1.28870       -0.89320
H         -0.85040       -2.50070        0.15770
H         -0.57280       -1.18820        1.35010
H          1.40850       -2.28590       -0.47460
H          2.65530       -0.29910       -0.53660
