14
10099	1
C          1.67270       -0.13550       -0.07840
C          0.75810       -1.17650        0.57730
O         -0.43130       -1.37910       -0.10060
C         -1.46760       -0.48400       -0.12360
N         -1.32280        0.78230        0.13200
O         -0.14230        1.36410        0.29580
C          0.89720        1.08010       -0.56460
H          2.21790       -0.55720       -0.95070
H          2.42230        0.15630        0.68890
H          0.50410       -0.84920        1.61100
H          1.31560       -2.13210        0.67170
H         -2.46180       -0.85790       -0.34090
H          1.56410        1.95560       -0.71020
H          0.46260        0.84250       -1.56310
