16
10094	1
C          1.73360       -0.08670       -0.07500
C          0.85510       -1.19780        0.52090
C         -0.43860       -1.51450       -0.25180
C         -1.51880       -0.43080       -0.22730
N         -1.32620        0.80450        0.12860
O         -0.12710        1.30780        0.37880
C          0.90390        1.10790       -0.51500
H          2.31060       -0.44500       -0.95530
H          2.45630        0.20960        0.71600
H          0.54520       -0.90060        1.54800
H          1.48060       -2.11110        0.62190
H         -0.88300       -2.38330        0.28020
H         -0.23010       -1.83340       -1.29470
H         -2.52220       -0.72960       -0.51190
H          1.51800        2.02230       -0.65300
H          0.46930        0.86590       -1.51280
