17
10177	1
C         -1.48580        0.74040        0.19300
C         -1.25550       -0.73830       -0.10590
N          0.06300       -1.22770        0.36200
C          1.05930       -1.13270       -0.75610
C          1.19120       -0.25820        0.39190
C          0.84440        1.24570        0.28720
N         -0.41560        1.53480       -0.40140
H         -1.52140        0.90940        1.29300
H         -2.46520        1.05360       -0.22800
H         -1.40930       -0.93330       -1.19150
H         -2.04680       -1.32040        0.41160
H          0.68630       -0.67800       -1.69880
H          1.68710       -2.04840       -0.75560
H          2.01740       -0.56700        1.06670
H          1.67860        1.78360       -0.21110
H          0.77610        1.64410        1.32300
H         -0.33780        1.34000       -1.42670
