15
10236	1
C         -1.53220        0.85420        0.07690
C         -1.28180       -0.59780       -0.23060
C         -0.05760       -0.83320        0.62410
O          0.99340       -1.42400       -0.10340
C          1.61600       -0.16430       -0.26150
C          0.60460        0.51890        0.63820
O         -0.25910        1.45720        0.02020
H         -1.95790        0.98580        1.09910
H         -2.22850        1.29890       -0.66530
H         -0.99820       -0.63930       -1.30800
H         -2.12530       -1.29710       -0.05160
H         -0.23080       -1.20030        1.66050
H          1.54780        0.16460       -1.32280
H          2.63910       -0.16220        0.17320
H          0.99390        0.78970        1.64450
