12
10271	1
C          1.32760       -0.71180       -0.20690
N          2.29810        0.38030       -0.35180
C          3.12250       -0.44760       -1.06910
C          4.29160       -0.71240       -1.71780
O          4.22070       -1.96580       -2.12660
C          3.06130       -2.48320       -1.73250
C          2.35690       -1.52000       -1.03020
H          0.38050       -0.53010       -0.75990
H          1.19840       -1.04680        0.84550
H          2.66740        1.02680        0.36030
H          5.12490       -0.04210       -1.87970
H          2.74680       -3.50130       -1.91820
