15
10252	1
C          0.73000       -1.38670        0.65800
O          1.23540       -0.12460        1.03510
C          0.72260        0.46610       -0.14620
C         -0.24210        1.63150        0.14260
C         -1.52560        0.93780        0.38230
C         -1.45310       -0.38700        0.05890
C         -0.10230       -0.77680       -0.43870
H          0.14170       -1.89440        1.45430
H          1.56900       -1.99790        0.25430
H          1.58940        0.68760       -0.80890
H         -0.38790        2.27450       -0.75100
H          0.12130        2.23510        1.00100
H         -2.43340        1.42240        0.71620
H         -2.29220       -1.06570        0.13530
H         -0.07310       -1.19470       -1.46710
