12
10219	1
C         -1.59180        0.71030        0.47290
C         -1.21290       -0.66510       -0.27730
C         -0.16120       -1.53890        0.36710
N          1.06230       -1.14560        0.50130
N          1.49130        0.08940        0.05770
C          0.67860        0.93120       -0.47950
N         -0.70050        0.60910       -0.61310
H         -1.03890        1.01020        1.39080
H         -2.45950        1.31060        0.13020
H         -1.76010       -1.04460       -1.16470
H         -0.44390       -2.52450        0.71940
H          1.04790        1.88540       -0.83830
