18
10227	1
C         -1.65700        0.87880        0.07850
C         -1.43760       -0.60110       -0.20820
C         -0.05850       -0.88190        0.40990
C          1.09110       -1.31590       -0.50030
N          1.76980       -0.01630       -0.42210
C          0.64800        0.47200        0.38260
C         -0.31060        1.43950       -0.33270
H         -1.81180        1.03410        1.17090
H         -2.51300        1.31570       -0.47850
H         -1.39320       -0.73050       -1.31370
H         -2.23650       -1.26520        0.18320
H         -0.03000       -1.22350        1.46890
H          0.77360       -1.55290       -1.54170
H          1.71090       -2.11130       -0.03350
H          1.78300        0.42440       -1.37140
H          0.92760        0.78980        1.41350
H         -0.24460        1.32470       -1.43970
H         -0.13510        2.50710       -0.08420
