17
10193	1
C         -0.47680       -1.56200       -0.36280
C          0.75990       -1.21100        0.47990
C          1.26010        0.23900        0.34020
C          0.89320        1.14140       -0.82690
C          0.08740        1.20320        0.48380
C         -1.31620        0.71720        0.19050
C         -1.57360       -0.54270       -0.20280
H         -0.83950       -2.55470       -0.02010
H         -0.23470       -1.65100       -1.44270
H          1.58110       -1.92140        0.24820
H          0.49360       -1.34680        1.55170
H          2.06360        0.57510        1.03050
H          0.65170        0.46160       -1.66850
H          1.76160        1.82520       -0.93960
H          0.21180        2.25480        0.81880
H         -2.13850        1.41930        0.28490
H         -2.59200       -0.82150       -0.45510
