16
10189	1
C         -0.12180        1.33960        0.57170
C         -1.49790        0.74790        0.30420
C         -1.62580       -0.47350       -0.27540
C         -0.39140       -1.34080       -0.56230
C          0.83490       -0.85700        0.26490
N          2.08890       -0.05580        0.11050
C          0.85780        0.54740       -0.29850
H          0.10460        1.33480        1.66030
H         -0.09270        2.38730        0.20650
H         -2.38410        1.31960        0.56060
H         -2.61300       -0.85520       -0.51590
H         -0.20250       -1.45140       -1.65330
H         -0.61970       -2.35330       -0.16800
H          0.64590       -0.92830        1.36090
H          2.57140       -0.44340       -0.73260
H          0.80430        0.66960       -1.41020
