13
10270	1
C          1.39920       -0.60560       -0.06800
N          2.35130        0.50860       -0.16920
C          3.16450       -0.25700       -0.96460
C          4.31770       -0.45210       -1.66660
N          4.26700       -1.70330       -2.17380
H          4.99310       -2.16120       -2.76770
C          3.09820       -2.25860       -1.75450
C          2.41290       -1.34330       -0.97210
H          0.43530       -0.40000       -0.58190
H          1.30270       -1.01230        0.96220
H          2.73210        1.11600        0.57080
H          5.12940        0.24850       -1.80970
H          2.78050       -3.26560       -1.99010
