13
10248	1
C          1.62910       -0.36260        0.16930
O          0.76990       -1.48380        0.11170
C         -0.17510       -0.75720       -0.63440
C         -1.38800       -0.41130        0.18300
N         -1.31760        0.76560        0.64420
N         -0.16150        1.36940        0.26500
C          0.65460        0.52810       -0.57590
H          2.54510       -0.56380       -0.42860
H          1.81430       -0.03370        1.21550
H         -0.33580       -1.13970       -1.66620
H         -2.20830       -1.08070        0.40320
H          0.08680        2.32880        0.54500
H          0.92160        0.93410       -1.57510
