12
10250	1
C          1.62820       -0.29350        0.12700
O          0.78330       -1.42470        0.20100
C         -0.17330       -0.79950       -0.62020
C         -1.36210       -0.34560        0.14790
N         -1.25720        0.87420        0.46280
O         -0.13550        1.39150        0.02790
C          0.63040        0.49370       -0.69820
H          2.54010       -0.54920       -0.45640
H          1.81770        0.15250        1.12810
H         -0.33430       -1.29060       -1.60480
H         -2.19620       -0.96420        0.44980
H          0.91110        0.80740       -1.72650
