13
10266	2
C          1.97540        0.03400        1.17740
C          2.22380       -0.09570       -0.40730
C          2.70090        1.28670       -0.25320
N          3.20850        2.39360       -0.80270
H          3.45340        2.55170       -1.80470
N          3.35240        3.28360        0.17140
C          2.92440        2.70090        1.32170
C          2.51040        1.41630        1.02140
H          2.65460       -0.57500        1.81260
H          0.90810        0.06420        1.48660
H          1.30970       -0.11230       -1.03870
H          3.06520       -0.75460       -0.71100
H          2.91790        3.17820        2.29210
