13
10260	1
C          1.22850       -0.63990        0.01160
C          2.54190        0.30840        0.06920
N          3.15950       -0.67010       -0.78600
N          4.18280       -1.12430       -1.48010
C          3.76260       -2.28980       -2.03250
C          2.43800       -2.52180       -1.64210
C          2.14070       -1.43680       -0.85000
H          0.37940       -0.26340       -0.59710
H          0.99730       -1.21230        0.93460
H          3.05660        0.33920        1.05420
H          2.44440        1.27940       -0.46370
H          4.36850       -2.92120       -2.66810
H          1.79960       -3.35540       -1.90090
