15
10190	1
C         -0.11710        1.35430        0.60780
C         -1.47570        0.73600        0.28010
C         -1.56550       -0.48370       -0.31240
C         -0.32020       -1.33730       -0.55030
C          0.81060       -0.80140        0.34650
O          2.04710       -0.19540        0.10720
C          0.95770        0.61900       -0.21310
H          0.06940        1.38930        1.70350
H         -0.12070        2.39770        0.22890
H         -2.38000        1.29500        0.49900
H         -2.53800       -0.87300       -0.59640
H         -0.06870       -1.41240       -1.63080
H         -0.53660       -2.36070       -0.17860
H          0.64860       -0.87490        1.44740
H          0.88740        0.71350       -1.32210
