13
10265	1
C          1.85800       -0.04120        1.19310
C          2.25630       -0.10170       -0.35710
C          2.74340        1.27930       -0.13160
C          3.31390        2.48450       -0.46820
O          3.32110        3.24440        0.61320
C          2.78000        2.56570        1.60980
C          2.41940        1.32860        1.12940
H          2.47200       -0.67650        1.86710
H          0.76740        0.00060        1.40270
H          1.40230       -0.09590       -1.06820
H          3.10690       -0.77300       -0.60380
H          3.69410        2.77660       -1.43760
H          2.65200        2.93510        2.61820
