16
10349	1
N          1.07470        0.04870        0.05230
C          2.53420       -0.03530       -0.08800
C          2.97760       -1.44710       -0.41340
O          2.76070       -1.56970       -1.78860
C          3.29430       -0.36400       -2.28740
C          2.30300        0.68970       -2.64820
C          3.03400        0.77880       -1.28620
H          0.79940       -0.40760        0.95250
H          0.58050       -0.47270       -0.70590
H          2.98590        0.32370        0.86320
H          2.41940       -2.20640        0.17520
H          4.06710       -1.58250       -0.20880
H          4.23400       -0.36300       -2.88320
H          1.22330        0.48470       -2.53220
H          2.65720        1.54430       -3.26170
H          4.07700        1.15330       -1.19050
