18
10344	1
C          0.90750        0.02050        0.20360
C          2.42860       -0.09060       -0.00700
C          2.86080       -1.50970       -0.30270
N          2.64620       -1.67300       -1.72940
C          3.14830       -0.41350       -2.29740
C          2.17270        0.69920       -2.54960
C          2.93600        0.70730       -1.22180
H          0.61790       -0.55530        1.10850
H          0.31390       -0.38180       -0.63960
H          0.62810        1.08300        0.36640
H          2.89650        0.27560        0.93310
H          2.34500       -2.27850        0.31310
H          3.95620       -1.59930       -0.11520
H          1.62490       -1.78370       -1.92980
H          4.20660       -0.38970       -2.64400
H          1.09710        0.44870       -2.49150
H          2.54200        1.49570       -3.22800
H          3.96670        1.11760       -1.13210
