16
10295	1
N          0.68010        0.11070        0.05820
C          2.13770        0.15660        0.21560
C          2.95840       -0.85110       -0.55910
C          2.47990       -1.52090       -1.84430
O          2.71470       -0.65780       -2.91840
C          2.46010        0.61620       -2.40280
C          2.94560        0.66950       -0.95660
H          0.30550       -0.59400        0.73260
H          0.34350       -0.14830       -0.89150
H          2.52770        0.43400        1.21730
H          4.02360       -1.04070       -0.29160
H          1.40740       -1.80420       -1.80860
H          3.05790       -2.45760       -1.98890
H          1.38270        0.86190       -2.50520
H          3.02130        1.37260       -2.99020
H          4.00890        0.97650       -0.82530
