14
10378	2
N          1.12680        0.23380        0.44360
C          2.32200        0.03990        0.01810
N          2.80010       -1.20250       -0.38240
N          4.11680       -1.17200       -0.80360
C          4.53040        0.23530       -0.57710
C          3.90120        1.22370       -1.54930
C          3.32670        1.10600       -0.14100
H          0.46000       -0.54810        0.52140
H          2.23510       -2.06450       -0.39100
H          4.15160       -1.41140       -1.82170
H          5.61450        0.47350       -0.60460
H          3.14770        0.86940       -2.28720
H          4.32350        2.24840       -1.61700
H          3.70580        1.62960        0.76160
