17
10288	1
O          0.80670       -0.02690       -0.01640
C          2.17210        0.02440        0.28740
C          3.04130       -0.98700       -0.43070
C          2.54230       -1.71580       -1.68750
C          2.96860       -0.82180       -2.82060
C          2.53240        0.52190       -2.30060
C          3.03200        0.54280       -0.84720
H          0.46910       -0.84750        0.42640
H          2.48000        0.36880        1.29690
H          4.09830       -1.17430       -0.13320
H          1.43280       -1.79680       -1.67300
H          2.96050       -2.74030       -1.77930
H          2.52510       -1.09270       -3.80220
H          4.07980       -0.83970       -2.90330
H          1.42230        0.59160       -2.32830
H          2.94350        1.35900       -2.90320
H          4.09160        0.85240       -0.69760
