14
10307	1
N          0.79150        0.00130       -0.28430
C          2.19580        0.14480        0.11540
C          3.17630       -0.82700       -0.52930
O          2.74020       -1.54210       -1.64950
C          2.93000       -0.66320       -2.72480
O          2.72260        0.65000       -2.28030
C          3.15950        0.64450       -0.95160
H          0.36920       -0.76420        0.28810
H          0.65430       -0.23490       -1.29180
H          2.42280        0.42260        1.16580
H          4.19500       -1.04500       -0.13890
H          2.17250       -0.89320       -3.50250
H          3.95060       -0.77880       -3.15420
H          4.15820        1.07950       -0.72550
