15
10368	1
F          0.97330       -0.04980       -0.01350
C          2.36040       -0.09300        0.00650
C          2.83360       -1.49340       -0.24770
C          2.62020       -1.58820       -1.73570
N          3.15090       -0.32740       -2.28100
C          2.15790        0.74410       -2.42670
C          2.94480        0.68350       -1.18560
H          2.70370        0.29560        0.98840
H          2.32790       -2.27780        0.35440
H          3.93010       -1.53450       -0.05320
H          1.54050       -1.71920       -1.97870
H          3.16500       -2.46210       -2.15080
H          1.10150        0.39920       -2.41890
H          2.50690        1.51970       -3.13910
H          3.96200        1.11460       -1.07030
