17
10311	1
C          0.67480        0.05540       -0.05450
N          2.13020        0.12120        0.16330
C          2.96790       -0.85730       -0.56690
C          2.48350       -1.59400       -1.82400
N          2.76170       -0.71720       -2.94300
C          2.48410        0.60500       -2.41970
C          2.96430        0.60380       -0.96110
H          0.24640       -0.69520        0.64130
H          0.32860       -0.20140       -1.06720
H          0.23420        1.04030        0.20350
H          3.97900       -1.07460       -0.15570
H          1.40900       -1.86190       -1.78290
H          3.03870       -2.54750       -1.94490
H          2.16010       -0.94040       -3.76990
H          1.41060        0.85980       -2.52280
H          3.04230        1.36610       -3.00390
H          3.97060        1.00850       -0.71160
