16
10300	1
O          0.69440       -0.05390       -0.07530
C          2.04980        0.01960        0.26790
C          2.95020       -1.02740       -0.39400
C          2.46080       -1.74000       -1.65460
C          2.83380       -0.79330       -2.75980
N          2.48670        0.51510       -2.23690
C          2.96210        0.47820       -0.84330
H          0.34660       -0.85520        0.39420
H          2.32600        0.34430        1.29310
H          4.01760       -1.18640       -0.12230
H          1.35470       -1.84020       -1.62590
H          2.89700       -2.75220       -1.78950
H          2.32240       -1.02460       -3.71900
H          3.93570       -0.82740       -2.92360
H          1.44830        0.64200       -2.26910
H          3.97610        0.89310       -0.64400
