13
10382	2
N          1.16130        0.09170        0.22530
C          2.38070       -0.05050       -0.14930
N          2.95760       -1.27980       -0.43830
O          4.21510       -1.18810       -0.89120
C          4.55140        0.17560       -0.63400
C          4.02400        1.11330       -1.70120
C          3.32260        1.05270       -0.33670
H          0.54340       -0.72560        0.33500
H          2.45850       -2.17890       -0.37510
H          5.60560        0.44880       -0.41670
H          3.29690        0.74660       -2.45860
H          4.42830        2.14520       -1.76670
H          3.63330        1.63150        0.55870
