16
10360	1
N          1.07070        0.11500        0.18190
C          2.51130       -0.12360        0.03380
C          2.84390       -1.59690       -0.21240
C          2.70370       -1.79850       -1.71590
C          3.23830       -0.48340       -2.27740
O          2.18090        0.43870       -2.28110
C          3.07940        0.56680       -1.21380
H          0.74070       -0.35150        1.05790
H          0.53000       -0.29520       -0.61320
H          3.02430        0.21860        0.95940
H          2.30600       -2.32880        0.42680
H          3.93270       -1.70580        0.00360
H          1.64210       -1.93360       -2.02070
H          3.29100       -2.68390       -2.03970
H          3.66890       -0.39210       -3.29570
H          3.40810        1.62620       -1.23520
