15
10318	1
C          0.82050        0.00310       -0.28500
C          2.18730        0.00150        0.41140
C          3.31910        0.79020       -0.22190
N          3.26080        1.05750       -1.63770
N          3.27720       -0.06680       -2.39450
C          3.30880       -1.10590       -1.67430
C          3.32260       -0.79450       -0.20050
H          0.26030        0.90920        0.02560
H          0.25080       -0.89230        0.03880
H          0.87690       -0.00380       -1.39150
H          2.20150        0.01930        1.52140
H          4.23930        1.11840        0.30850
H          3.26100        2.00270       -2.04610
H          3.32350       -2.10310       -2.09190
H          4.19080       -1.11490        0.41550
