15
10374	1
C          1.13950        0.13410        0.07460
C          2.39000       -0.07160       -0.34080
O          2.78600       -1.23800       -0.86210
C          4.11620       -1.24580       -1.19330
C          4.64650        0.14080       -0.78850
C          4.08700        1.28320       -1.62160
C          3.45440        0.96240       -0.28030
H          0.40170       -0.65860        0.00140
H          0.84840        1.09440        0.48900
H          4.25630       -1.43610       -2.27880
H          4.63200       -2.03070       -0.60160
H          5.73590        0.35610       -0.77630
H          3.38950        1.05130       -2.45690
H          4.54600        2.28930       -1.51900
H          3.79930        1.33450        0.70750
