12
10325	1
F          1.49350       -0.07560        1.28840
C          2.59140       -0.06290        0.44920
C          2.33050        0.69570       -0.83880
N          3.49510        1.01340       -1.62450
C          4.14810       -0.14580       -2.01220
N          3.57440       -1.19040       -1.58330
C          2.38110       -0.87530       -0.81400
H          3.62230       -0.00800        0.86000
H          1.33670        0.97860       -1.24960
H          3.79290        1.96650       -1.87590
H          5.05010       -0.16470       -2.60870
H          1.40390       -1.23910       -1.20050
