15
10326	1
C          0.97300        0.00040       -0.39030
C          2.29080        0.02700        0.39390
C          3.46140        0.80660       -0.18050
O          3.48120        1.10800       -1.53680
C          3.57910        0.02830       -2.30980
C          3.57700       -1.10410       -1.57250
C          3.47430       -0.77370       -0.12270
H          0.38380        0.90440       -0.13180
H          0.39320       -0.89620       -0.08830
H          1.09830       -0.02360       -1.49010
H          2.23240        0.05760        1.50220
H          4.32440        1.16330        0.42300
H          3.64070        0.06210       -3.38910
H          3.63900       -2.10200       -1.98480
H          4.30140       -1.06980        0.55840
