14
10305	1
F          0.61640        0.05470       -0.40210
C          1.93270        0.16840        0.01290
C          2.81990       -0.97420       -0.53640
C          2.37600       -1.65630       -1.82230
C          2.78630       -0.68220       -2.89510
O          2.46500        0.56980       -2.36350
C          2.94530        0.47660       -1.04080
H          2.16450        0.28750        1.09160
H          3.88050       -1.14020       -0.24730
H          1.26790       -1.74370       -1.82280
H          2.80410       -2.67030       -1.96830
H          2.24740       -0.88430       -3.84480
H          3.88470       -0.72930       -3.08730
H          3.78630        1.11700       -0.69590
