17
10291	1
N          0.74570        0.09090        0.10070
C          2.20120        0.14440        0.27400
C          3.03860       -0.87110       -0.47350
C          2.59600       -1.57140       -1.76120
N          2.95620       -0.68750       -2.85010
C          2.58060        0.61840       -2.34930
C          3.02530        0.66400       -0.88450
H          0.36700       -0.61460        0.77210
H          0.41620       -0.16620       -0.85120
H          2.57330        0.42630        1.28130
H          4.10000       -1.04850       -0.18550
H          1.50450       -1.77280       -1.76810
H          3.10970       -2.54950       -1.87080
H          2.43230       -0.92530       -3.72430
H          1.48670        0.77540       -2.45390
H          3.08250        1.41670       -2.93540
H          4.08270        0.97760       -0.72730
