15
10408	1
C          1.03640       -0.05070       -0.06270
N          2.46480        0.10730        0.04990
N          3.10050        1.27080       -0.23360
C          4.34640        1.16530       -0.04210
C          4.74440       -0.20740        0.43320
C          4.42430       -1.36670       -0.48620
C          3.35450       -0.93350        0.49980
H          0.56940        0.89250       -0.41790
H          0.61050       -0.31250        0.92850
H          0.80730       -0.86070       -0.78640
H          5.03350        1.98320       -0.21000
H          5.24700       -0.34950        1.41460
H          4.90890       -2.32260       -0.19880
H          4.20090       -1.09870       -1.54160
H          3.23350       -1.29260        1.54520
