16
10458	1
O          1.01150        0.06520        0.03490
C          2.41630        0.00070        0.01250
C          2.95250       -0.97970       -1.03220
C          4.44590       -0.72130       -0.89010
N          4.46250        0.74530       -0.85020
C          3.02180        0.97770       -0.99730
C          2.61230        0.02430       -2.12370
H          0.70330       -0.82620        0.34310
H          2.83440       -0.00090        1.04670
H          2.64000       -2.04440       -1.07740
H          5.02260       -1.12380       -1.75470
H          4.84360       -1.14580        0.05820
H          4.95720        1.12710       -1.69140
H          2.74590        2.05380       -1.01080
H          3.21550        0.02600       -3.06050
H          1.52100        0.05920       -2.35120
