15
10416	1
C          0.98190       -0.04670        0.05980
C          2.49650        0.16030        0.07690
C          2.88400        1.44560        0.70960
C          3.68470        1.25140        1.79930
C          3.94200       -0.18560        2.05980
O          2.75970       -0.90600        2.27880
C          3.23010       -0.88360        0.94390
H          0.49930        0.74480       -0.55220
H          0.56190       -0.00670        1.08780
H          0.74280       -1.03460       -0.38780
H          2.89360        0.13280       -0.96030
H          2.57460        2.42190        0.36000
H          4.06600        2.05800        2.41060
H          4.93700       -0.65740        2.19660
H          3.32620       -1.95000        0.65100
