15
10426	1
C          1.01720       -0.03920       -0.17430
C          2.33540        0.14180       -0.06910
C          3.00630        1.38620       -0.32090
C          4.34010        1.21150       -0.11750
C          4.68220       -0.19180        0.30330
C          4.37590       -1.31230       -0.67220
C          3.30370       -0.93200        0.33230
H          0.36950        0.78110       -0.46860
H          0.57970       -1.01050        0.03380
H          2.54340        2.31650       -0.62380
H          5.06870        2.00150       -0.23960
H          5.18220       -0.37600        1.27910
H          4.88080       -2.26930       -0.42600
H          4.16680       -0.98930       -1.71530
H          3.21490       -1.42240        1.32640
