14
10397	1
O          1.21230        0.21370        0.50610
C          2.30420        0.00160        0.00400
C          2.83640       -1.34950       -0.20240
C          4.09190       -1.04230       -1.00200
N          4.49750        0.35610       -0.73140
C          3.77900        1.29550       -1.62290
C          3.27850        1.08340       -0.27170
H          2.17210       -2.04080       -0.76400
H          3.07050       -1.75210        0.80670
H          3.88170       -1.17360       -2.08860
H          4.90060       -1.76400       -0.76150
H          3.16080        0.85160       -2.43500
H          4.33050        2.25070       -1.74540
H          3.59920        1.73880        0.56520
