16
10480	1
N          1.00950       -0.09350       -0.39400
C          2.36210        0.36900       -0.03820
C          3.58120       -0.41570       -0.58460
C          4.35950        0.91380       -0.44950
C          2.99640        1.50210       -0.88190
C          2.94360        0.91830       -2.24960
C          3.33390       -0.36360       -2.05050
H          0.82350       -0.98530        0.11830
H          0.86620       -0.27070       -1.41250
H          2.42590        0.56090        1.06170
H          3.93420       -1.37810       -0.15890
H          5.24930        1.08450       -1.10260
H          4.61430        1.15610        0.61140
H          2.72860        2.57360       -0.77190
H          2.66940        1.38280       -3.18720
H          3.43850       -1.14150       -2.79480
