16
10466	1
O          1.23510        0.02240        0.12960
C          2.63750       -0.01830        0.08850
C          3.14020       -0.96390       -0.99400
C          4.65710       -0.80380       -0.85220
C          4.67690        0.72510       -0.84240
C          3.16400        0.92630       -0.97900
N          2.78050       -0.00610       -2.04130
H          0.94350       -0.87520        0.43580
H          3.08000       -0.01090        1.11310
H          2.74390       -1.99970       -1.06200
H          5.18620       -1.22790       -1.73360
H          5.02890       -1.24970        0.09710
H          5.21350        1.14640       -1.72070
H          5.06470        1.14920        0.11040
H          2.79490        1.97300       -1.03150
H          3.41750       -0.00720       -2.87570
