15
10462	1
O          1.03890        0.03510        0.00130
C          2.44280       -0.04470       -0.01840
C          2.97120       -1.01810       -1.06600
C          4.45240       -0.73320       -0.92330
O          4.44990        0.67980       -0.90490
C          3.06240        0.91840       -1.03060
C          2.64090       -0.01770       -2.15950
H          0.72010       -0.85360        0.30600
H          2.86250       -0.04790        1.01510
H          2.67040       -2.08630       -1.11060
H          5.03000       -1.12140       -1.79200
H          4.85910       -1.14570        0.02730
H          2.80240        1.99800       -1.04280
H          3.24960       -0.01300       -3.09300
H          1.55010        0.02680       -2.38730
