15
10540	1
C         -1.16100        0.70440       -0.04870
C         -0.99670       -0.78290       -0.28360
N         -0.27970       -1.39660        0.85700
C          0.42230       -1.04090       -0.38210
C          1.16780        0.29130       -0.27430
C          1.05730        1.11270        0.94470
N          0.14610        1.36910       -0.18540
H         -1.63920        0.91900        0.93280
H         -1.82560        1.10210       -0.84350
H         -1.87300       -1.43840       -0.48510
H         -0.44310       -2.43080        0.83240
H          0.83790       -1.93310       -0.89990
H          1.83640        0.58530       -1.11000
H          1.81130        1.92300        1.02140
H          0.53370        0.73340        1.84910
