15
10553	1
O          0.90100        0.25990       -0.16340
C          2.28230        0.11720        0.00030
C          2.99740       -0.66440       -1.08570
C          2.97280        0.86070       -1.14340
C          4.42540        1.32700       -0.99470
C          4.56430        2.75790       -0.63070
O          4.76770        1.72070        0.30620
H          0.51270       -0.59210        0.16240
H          2.72290        0.49400        0.94640
H          2.20930       -1.23910       -1.61920
H          3.78630       -1.21350       -0.52720
H          2.47710        1.06330       -2.11700
H          5.26970        0.88750       -1.56750
H          3.67490        3.32840       -0.28850
H          5.54700        3.24920       -0.78690
