17
10520	1
C         -0.89100        0.00010       -1.24730
C         -0.63030        0.98370       -0.10880
C         -1.32710        0.00010        0.82370
C         -0.63050       -0.98360       -0.10890
C          0.84680       -0.77860        0.29700
C          1.86650       -0.00020       -0.51760
C          0.84700        0.77840        0.29710
H         -0.26240        0.00000       -2.15810
H         -1.96340        0.00020       -1.56210
H         -0.96220        2.04170       -0.16160
H         -2.43650        0.00020        0.68900
H         -1.06680        0.00000        1.90790
H         -0.96260       -2.04160       -0.16170
H          1.15200       -1.12610        1.30990
H          1.75610       -0.00020       -1.61650
H          2.87960       -0.00030       -0.06400
H          1.15220        1.12580        1.30990
