17
10548	1
N          0.93290       -0.04580        0.07710
C          2.39120       -0.17570        0.09670
C          3.06560       -0.71280       -1.14560
C          3.01220        0.80470       -0.89850
C          4.45800        1.26230       -0.64940
C          4.64080        2.71290       -0.72600
N          4.65320        2.03900        0.58970
H          0.53190       -0.85820        0.59730
H          0.53910       -0.05680       -0.89210
H          2.90290       -0.06500        1.07650
H          2.27810       -1.19550       -1.76260
H          3.89070       -1.33930       -0.74340
H          2.53520        1.14490       -1.84290
H          5.35040        0.68790       -0.97970
H          3.76170        3.39510       -0.77700
H          5.66800        3.08820       -0.91650
H          3.72960        2.21670        1.05050
