17
10531	1
C         -1.29390        0.65030        0.02160
C         -1.03690       -0.80390       -0.33850
C         -0.39250       -1.55560        0.81480
C          0.47110       -1.07020       -0.32980
C          1.06780        0.34790       -0.35330
C          1.09250        1.20690        0.88750
C          0.00610        1.43100       -0.18160
H         -1.67970        0.74250        1.06100
H         -2.06210        1.07260       -0.65980
H         -1.90550       -1.46860       -0.53310
H         -0.36400       -2.66530        0.76700
H         -0.11850       -1.05100        1.75950
H          0.57490       -1.65160       -1.27010
H          2.01660        0.53580       -0.90140
H          1.71980        2.12240        0.85200
H          0.54490        1.00490        1.82890
H          0.12880        1.88840       -1.18740
