16
10511	1
C          0.05850        1.00010        0.11600
C          1.02670       -0.14100       -0.09760
C         -0.24320       -0.95300       -0.20800
O         -1.05740        0.19670       -0.19150
C         -0.32380       -1.81610       -1.48780
C         -1.63460       -1.96000       -2.11110
N         -0.59770       -1.10430       -2.74750
H          0.19710        1.83030       -0.61080
H         -0.00070        1.31250        1.18310
H          1.67250       -0.38860        0.77200
H          1.52170       -0.01670       -1.08660
H         -0.43960       -1.54440        0.71530
H          0.37790       -2.66360       -1.63570
H         -2.49000       -1.32030       -1.79830
H         -1.78870       -2.84620       -2.76130
H         -0.84190       -0.10440       -2.56620
