18
10555	1
C          0.85390        0.07760       -0.06100
C          2.37730        0.13660        0.08910
N          3.12270       -0.68690       -0.87180
C          3.11320        0.79730       -0.99260
C          4.51760        1.31020       -0.66220
C          4.54840        2.79150       -1.03510
C          4.68330        2.38050        0.41320
H          0.47490       -0.84950        0.41690
H          0.52850        0.09260       -1.12390
H          0.40640        0.95290        0.45350
H          2.84190        0.10070        1.09740
H          2.46950       -1.08250       -1.58810
H          2.66650        1.05130       -1.98190
H          5.36790        0.89800       -1.24720
H          3.62200        3.40680       -1.04680
H          5.52060        3.27470       -1.27130
H          3.77990        2.34140        1.05790
H          5.68890        2.18450        0.84230
