11
10494	1
O          1.24050       -0.04850       -0.44730
C          2.45980       -0.00910       -0.49700
C          3.37420       -0.82050        0.28640
O          3.59630        0.33780        1.09450
C          3.29740        1.10030       -0.07740
C          4.46900        0.69570       -0.88780
C          4.52290       -0.65060       -0.63280
H          3.06590       -1.75540        0.80330
H          2.91030        2.13250        0.06690
H          5.11630        1.28480       -1.52100
H          5.22280       -1.37840       -1.01660
