16
10523	1
C          1.81010       -0.02950       -0.55410
C          0.83440        0.81710        0.26380
C         -0.65300        1.03710       -0.09470
C         -1.27580       -0.01260        0.79310
N         -0.64820       -0.98840       -0.11530
C         -0.90170        0.01170       -1.16910
C          0.76860       -0.75040        0.29040
H          2.82610       -0.02030       -0.10710
H          1.71450       -0.01610       -1.65360
H          1.16520        1.15260        1.27250
H         -1.01530        2.08560       -0.13020
H         -2.39510       -0.05520        0.73010
H         -0.98170       -0.02910        1.87360
H         -1.96930       -0.02380       -1.51260
H         -0.28300       -0.00650       -2.08540
H          1.07000       -1.11870        1.29890
