13
10538	1
C         -1.29090        0.65540       -0.00590
C         -1.03840       -0.84230       -0.16860
O         -0.24930       -1.34320        0.88930
C          0.41980       -1.08970       -0.31900
C          1.08550        0.28240       -0.37970
O          0.94040        0.95350        0.85000
C          0.06180        1.33130       -0.18060
H         -1.76070        0.90080        0.97050
H         -1.95420        0.98640       -0.83190
H         -1.85930       -1.57970       -0.28720
H          0.61200       -1.93330       -1.01340
H          2.10530        0.47300       -0.77260
H          0.19960        2.42110       -0.33750
