16
10542	1
C         -1.45950        0.62890        0.10700
C         -1.17840       -0.85440       -0.09620
C         -0.12200       -1.47420        0.84020
C          0.28720       -0.88420       -0.49960
N          0.87210        0.47260       -0.62920
C          0.92890        1.31360        0.59320
C         -0.22370        1.40000       -0.31170
H         -1.73590        0.87310        1.15550
H         -2.30870        0.90780       -0.55210
H         -1.58860       -1.28940       -1.03380
H         -0.34650       -2.56130        0.83980
H         -0.29820       -0.95210        1.80260
H          0.66840       -1.67760       -1.17890
H          1.72790        2.06700        0.43020
H          1.01740        0.67930        1.49080
H         -0.25090        2.38880       -0.81660
