17
10565	1
N          0.99790       -0.24460        0.06720
C          2.45290       -0.38910       -0.00600
C          3.07030       -0.62880       -1.37630
C          3.03970        0.78040       -0.78980
N          4.41810        1.14070       -0.42160
C          4.77260        2.51280       -0.85790
C          4.39420        2.27620        0.53000
H          0.61070       -1.12960        0.46210
H          0.55940       -0.09290       -0.86930
H          3.00620       -0.45040        0.95630
H          2.25530       -0.96620       -2.05150
H          3.93470       -1.29830       -1.17940
H          2.51710        1.36050       -1.58300
H          4.01870        2.98040       -1.52780
H          5.86240        2.56370       -1.06230
H          3.36870        2.58880        0.83380
H          5.23170        2.17630        1.25160
