11
342	1
F          0.80040       -0.03660        0.57700
C          2.12660       -0.03630        0.17860
F          2.27680       -0.03630       -1.19800
C          2.95280        1.08860        0.86600
C          3.66530       -0.03600        1.45840
O          4.60390       -0.03590        2.23900
C          2.95320       -1.16090        0.86600
H          2.42670        1.65800        1.66170
H          3.63930        1.65830        0.20380
H          2.42740       -1.73060        1.66170
H          3.63990       -1.73040        0.20380
