18
1579	1
C          2.78920        3.12830        1.40840
O          3.98000        2.37490        1.40960
C          3.66220        0.99840        1.38530
C          4.95110        0.15550        1.34260
N          5.72830        0.44440        0.13440
C          5.81250        0.38360        2.59590
O          6.93170       -0.46200        2.58530
H          3.05750        4.20450        1.42240
H          2.18410        2.93060        2.32100
H          2.19940        2.95330        0.48110
H          3.06290        0.74840        0.47940
H          3.09050        0.71240        2.29830
H          4.65580       -0.91740        1.32280
H          6.01160        1.45130        0.11320
H          5.15070        0.24130       -0.71370
H          5.21700        0.15190        3.50470
H          6.13080        1.44810        2.68230
H          7.62260       -0.01870        2.02690
