17
5543	1
C          1.01110       -0.05250       -0.17130
C          2.50380       -0.07020        0.15570
C          2.94580        0.99190        1.15320
O          4.20450        0.58430        1.66590
C          4.35450       -0.78230        1.31830
C          2.97950       -1.28320        0.90130
O          3.00460       -2.46800        0.14580
H          0.74590        0.90680       -0.66370
H          0.40410       -0.16230        0.75270
H          0.76710       -0.88710       -0.86200
H          3.09740        0.04630       -0.78220
H          2.23800        1.03640        2.01230
H          2.99600        1.99110        0.67100
H          4.75790       -1.38660        2.15800
H          5.06230       -0.82910        0.45990
H          2.35300       -1.43270        1.81200
H          3.55290       -2.30110       -0.66490
