11
5993	1
F          0.90070        0.02430        0.21040
C          2.28280        0.02900        0.23780
C          2.83330        1.16720       -0.55740
C          3.57350        0.69840       -1.61640
C          3.56380       -0.67180       -1.60200
C          2.84500       -1.10210       -0.57330
F          2.64630       -2.41630       -0.29310
H          2.66290        0.02540        1.28080
H          2.67810        2.21560       -0.33980
H          4.07800        1.32180       -2.34250
H          4.06160       -1.31250       -2.31780
