17
1005	1
C          3.19750        0.65840       -0.86430
C          3.11740        0.39330        0.63180
N          4.13490       -0.55880        1.01270
C          4.27240       -0.94800        2.23210
N          5.28570       -1.88770        2.57190
C          5.45750       -2.32800        3.93880
O          6.10390       -2.36400        1.62030
H          2.41530        1.39030       -1.15690
H          3.03590       -0.28470       -1.42870
H          4.19390        1.07390       -1.12610
H          2.11120       -0.01170        0.87780
H          3.27050        1.34840        1.18080
H          3.61320       -0.55860        3.00560
H          4.71930       -1.85100        4.61880
H          6.47880       -2.06630        4.28610
H          5.32700       -3.42910        3.99240
H          5.65600       -3.18140        1.28120
