13
5642	1
C          1.14520       -0.08660        0.16800
N          2.54890       -0.02960       -0.16320
O          3.18420        1.11140       -0.48380
C          4.54260        0.66950       -0.72840
O          4.60580       -0.70740       -0.53220
C          3.40300       -1.10300       -0.19520
N          3.07540       -2.31660        0.06580
H          0.70040        0.92940        0.11480
H          1.01810       -0.48160        1.19790
H          0.61660       -0.74890       -0.54940
H          5.23290        1.17340       -0.01930
H          4.82930        0.90460       -1.77530
H          3.77690       -3.06970        0.01980
