13
734	1
N          2.68980        0.51350       -1.42340
C          2.53730       -0.04490       -0.08250
C          3.02910        0.90510        0.98500
C          2.17900        1.55170        1.79900
C          4.41170        1.08460        1.16640
C          5.58160        1.23860        1.32230
H          2.44550       -0.19890       -2.10790
H          3.67480        0.72710       -1.57650
H          3.08840       -0.99080       -0.01480
H          1.48000       -0.28910        0.07280
H          1.10460        1.43780        1.69700
H          2.53230        2.22450        2.57470
H          6.62770        1.37910        1.46490
