21
413	1
C          1.62510        0.24530        0.14170
N          2.99360       -0.25030       -0.05650
C          3.14110       -1.46900       -0.89640
C          2.51250       -2.70520       -0.21030
C          2.48260       -1.27180       -2.28240
C          4.65510       -1.73250       -1.14330
N          5.39450       -1.99000        0.09270
H          1.65820        1.14070        0.79760
H          0.98440       -0.51000        0.64080
H          1.17200        0.57370       -0.81460
H          3.39210       -0.42540        0.89470
H          1.41770       -2.58610       -0.07950
H          2.96620       -2.87640        0.78880
H          2.67310       -3.61600       -0.82670
H          1.38320       -1.14710       -2.20380
H          2.65550       -2.15970       -2.92860
H          2.90850       -0.38060       -2.79180
H          5.11440       -0.86630       -1.67130
H          4.76470       -2.62270       -1.80320
H          5.48750       -1.10350        0.63730
H          6.36520       -2.28440       -0.16110
