14
4916	1
O          1.08110        0.01280        0.45750
C          2.36760        0.00100       -0.09590
C          3.28990        1.10150        0.52920
N          4.00320        0.03360        1.11250
C          3.26770       -1.06350        0.61220
C          5.09230        0.06420        1.91600
O          5.58480       -0.97420        2.32780
H          0.65860        0.85220        0.14000
H          2.39870       -0.07510       -1.20530
H          2.81910        1.72770        1.31830
H          3.93750        1.63560       -0.19920
H          2.78500       -1.61890        1.44590
H          3.90630       -1.66400       -0.07140
H          5.53230        1.01550        2.19760
