17
1718	1
N          1.31740        0.26260        0.03130
C          2.62900       -0.15840       -0.46270
C          2.62380       -1.66730       -0.78770
C          3.99880       -2.17630       -1.22570
F          3.93390       -3.53580       -1.46970
C          2.97490        0.65810       -1.68650
C          4.04870        1.45340       -1.72090
H          1.08790       -0.25920        0.90840
H          0.57820        0.05590       -0.68030
H          3.37460        0.02230        0.34490
H          1.88150       -1.88060       -1.58820
H          2.32440       -2.23030        0.12330
H          4.74660       -1.99130       -0.42540
H          4.32950       -1.66550       -2.15420
H          2.33380        0.59690       -2.56150
H          4.71090        1.53780       -0.86480
H          4.26900        2.02630       -2.61570
