18
5147	1
C          1.09650        0.02380       -0.47750
C          2.50860       -0.11540        0.12630
C          3.20450       -1.41460       -0.31570
C          3.69060       -1.33090       -1.73840
C          3.84250       -0.15240       -2.36490
C          3.58970        1.16920       -1.67100
N          3.36580        1.02440       -0.22060
H          0.46080       -0.82570       -0.14920
H          1.11370        0.02710       -1.58670
H          0.62600        0.96560       -0.12430
H          2.37910       -0.15410        1.23040
H          2.49190       -2.25900       -0.19690
H          4.09080       -1.62700        0.31950
H          3.93980       -2.24770       -2.26350
H          4.16650       -0.14230       -3.40090
H          2.73040        1.67770       -2.15960
H          4.48490        1.81140       -1.80660
H          2.97450        1.91580        0.16430
