16
5615	1
C          1.04210       -0.04300        0.19670
C          2.57050       -0.00930        0.07760
N          3.14490        1.09510        0.87040
C          4.44840        0.57710        1.30010
C          4.25270       -0.90160        1.63240
C          3.21290       -1.22620        0.64210
O          2.89110       -2.36730        0.34860
H          0.61490        0.90120       -0.20230
H          0.72770       -0.16200        1.25590
H          0.63300       -0.89110       -0.39270
H          2.85290        0.08740       -0.99360
H          2.58620        1.22430        1.74840
H          4.90360        1.15490        2.13320
H          5.13130        0.65300        0.42180
H          3.82220       -1.06680        2.64320
H          5.21170       -1.44770        1.50380
