18
2896	1
C          2.44080        0.61540       -1.36360
N          3.70800        0.26070       -0.77900
N          3.85150        0.27280        0.59280
C          4.95150       -0.04030        1.20010
C          6.19490       -0.45080        0.44780
C          4.98870        0.01260        2.70410
N          5.29500       -1.30540        3.24990
H          2.50180        0.55260       -2.47080
H          2.17240        1.65300       -1.07430
H          1.65520       -0.08230       -1.00470
H          4.48800        0.00210       -1.40070
H          5.99260       -1.36470       -0.14930
H          7.02700       -0.67310        1.14890
H          6.52180        0.37170       -0.22250
H          4.01110        0.36160        3.10740
H          5.77180        0.73550        3.01920
H          4.52130       -1.96520        3.00340
H          5.33190       -1.23290        4.29240
