13
192	1
O          2.71040       -0.61750       -1.35750
C          2.39450        0.07960       -0.18380
C          2.97330       -0.64570        1.03060
C          4.47500       -0.73590        0.94380
C          5.26570       -0.19020        1.87290
H          2.30730       -0.09930       -2.10170
H          1.28880        0.12920       -0.06790
H          2.81170        1.11110       -0.22730
H          2.55380       -1.67320        1.08270
H          2.66180       -0.09940        1.94830
H          4.92660       -1.25960        0.10610
H          4.84770        0.33940        2.72350
H          6.34390       -0.27340        1.78250
