12
911	1
O          0.62880       -1.09000       -0.60620
N          1.93040       -1.08310       -0.41550
C          2.72360       -0.72560       -1.35980
C          4.21040       -0.71620       -1.13900
C          4.94190       -1.63220       -2.08400
O          6.28680       -1.71650       -2.01100
O          4.33460       -2.29820       -2.91140
H          0.03700       -1.36020        0.10850
H          2.32380       -0.42380       -2.32500
H          4.44210       -1.02890       -0.09750
H          4.58080        0.32000       -1.28640
H          6.78510       -2.29660       -2.60420
