11
5283	1
O          1.04640       -0.00590       -0.00410
C          2.26630       -0.00860       -0.01790
O          2.94870        1.15950       -0.03760
C          4.33700        1.23700       -0.05410
O          4.96890       -0.00570       -0.04850
C          4.33280       -1.20740       -0.02910
C          3.00400       -1.26880       -0.01340
H          4.67160        1.80970        0.83550
H          4.65120        1.79130       -0.96250
H          4.91630       -2.12230       -0.02640
H          2.48860       -2.22450        0.00210
