18
3542	1
C          1.05300        0.22820        0.10680
C          2.58090        0.16140        0.14520
C          3.17820       -0.65450       -0.98990
O          2.41940       -1.16700       -1.80320
N          4.54000       -0.82780       -1.12150
C          5.49570       -0.24440       -0.18750
C          5.08970       -1.61480       -2.21850
H          0.68550        0.83670        0.96000
H          0.61940       -0.79150        0.18670
H          0.71040        0.70100       -0.83850
H          2.87800       -0.29290        1.11480
H          2.96910        1.20120        0.08850
H          5.03660        0.34370        0.62810
H          6.18370        0.43310       -0.73620
H          6.09340       -1.05280        0.28440
H          4.31410       -2.03160       -2.89410
H          5.67330       -2.46690       -1.81010
H          5.76380       -0.97970       -2.83170
