9
6247	1
N          1.06980        0.06890       -0.07520
C          2.47930       -0.00240       -0.07720
O          3.28820        1.02520       -0.08240
N          4.52190        0.60080       -0.08280
N          4.53900       -0.72790       -0.07770
C          3.25600       -1.12840       -0.07410
F          2.84250       -2.41890       -0.06840
H          0.59990        0.98530       -0.07800
H          0.50520       -0.79270       -0.07100
