16
427	1
C          0.90450       -0.05690       -0.00680
C          2.44210       -0.06250        0.00490
C          2.95180        1.37420        0.19700
C          2.92840       -0.97210        1.15340
O          4.33700       -0.89420        1.35950
C          2.92340       -0.58460       -1.25240
N          3.30710       -1.00080       -2.25460
H          0.50200        0.34070        0.93190
H          0.50200       -1.06840       -0.14080
H          0.51280        0.55990       -0.82480
H          2.62810        1.78180        1.16140
H          2.57330        2.03860       -0.58940
H          4.04630        1.42700        0.16060
H          2.66560       -2.02310        0.98210
H          2.45860       -0.67040        2.09660
H          4.77870       -1.36970        0.63190
