16
1777	1
C          0.71990        1.20590       -0.24570
C         -0.73560        1.20650        0.24190
N         -1.43460        0.00080       -0.22290
C         -0.73730       -1.20590        0.24220
C          0.71850       -1.20710       -0.24490
N          1.40520       -0.00070        0.23280
H          1.23820        2.10760        0.14550
H          0.74500        1.24580       -1.35840
H         -1.25800        2.11060       -0.13780
H         -0.75650        1.24210        1.35380
H         -1.46770        0.00020       -1.27030
H         -1.26050       -2.10950       -0.13790
H         -0.75850       -1.24160        1.35410
H          0.74380       -1.24740       -1.35760
H          1.23600       -2.10920        0.14650
H          2.38400       -0.00180       -0.13800
