14
167	1
C          0.89610       -0.09710       -0.01030
C          2.39680       -0.17730       -0.13300
C          2.96600       -1.16740       -0.83960
C          3.25350        0.85900        0.55630
C          2.96350        2.22630        0.01490
O          2.54420        3.10550        0.75050
H          0.38730       -0.92200       -0.55400
H          0.53420        0.86560       -0.42750
H          0.60970       -0.15670        1.06050
H          2.35860       -1.91900       -1.33480
H          4.04560       -1.23730       -0.93130
H          4.33570        0.65470        0.40550
H          3.04830        0.82440        1.64840
H          3.12830        2.43820       -1.03680
