13
1120	1
N          2.57350        0.93030        1.17340
C          2.16940        0.16480        0.04440
N          1.23470        0.59550       -0.72540
C          2.81260       -1.12960       -0.26060
N          3.74980       -1.58850        0.48850
N          4.34510       -2.79180        0.20170
C          5.28120       -3.24900        0.95050
H          2.12150        1.83260        1.38170
H          3.32130        0.59530        1.79750
H          0.76320        1.49390       -0.54410
H          2.48460       -1.69500       -1.13020
H          5.74410       -4.20060        0.71410
H          5.61720       -2.69280        1.82140
