13
933	2
N          3.47090       -1.22130        0.73330
C          2.71420       -0.20810        0.06990
N          1.43310       -0.32090        0.02690
N          3.31460        0.93670       -0.56080
C          4.70130        1.28110       -0.61900
N          5.61240        0.56740       -0.06940
O          6.87620        0.92490       -0.14520
H          2.98160       -2.01760        1.16760
H          4.49080       -1.21620        0.79890
H          0.94720       -1.12030        0.45970
H          2.67140        1.59560       -1.02560
H          4.98560        2.18850       -1.14640
H          7.55790        0.38130        0.27190
