16
916	2
C          0.71750       -0.15450       -0.03050
C          2.16930       -0.30660        0.31570
C          2.93810        0.75420        0.60340
N          4.31610        0.58220        0.92940
C          5.12400        1.63630        1.22600
C          6.56600        1.40050        1.56210
O          4.68670        2.77880        1.22190
H          0.53960       -0.56350       -1.04660
H          0.39290        0.90810       -0.01390
H          0.10620       -0.72330        0.70040
H          2.59650       -1.30520        0.33040
H          2.50350        1.75070        0.58670
H          4.71480       -0.36980        0.94140
H          7.07220        0.90660        0.70650
H          6.63830        0.74680        2.45650
H          7.08260        2.36030        1.77780
