12
6037	1
C          1.12370       -0.09520        0.02760
C          2.61560       -0.05530        0.01040
N          3.35360        1.06440        0.13950
N          4.63010        0.70010        0.07350
C          4.65870       -0.63840       -0.09520
N          3.41040       -1.12420       -0.13530
O          3.03810       -2.41700       -0.29550
H          0.71340        0.92770        0.16180
H          0.77870       -0.73670        0.86500
H          0.75190       -0.51190       -0.93150
H          5.55920       -1.23150       -0.18520
H          2.97680       -2.78180        0.62450
