9
1112	1
O          0.93820        0.06170       -0.00480
C          2.28380        0.06720       -0.00100
C          3.10110        1.16990       -0.00200
N          4.37730        0.74070        0.00300
C          4.28300       -0.60860        0.00690
O          3.02890       -1.00610        0.00450
H          0.43780        0.88970       -0.00880
H          2.79880        2.20870       -0.00610
H          5.13450       -1.27570        0.01140
