15
5994	1
C          0.82430        0.00630        0.05180
C          2.34990       -0.03540        0.10070
C          2.97420        1.04270       -0.75010
N          3.67840        0.54120       -1.68790
N          3.65310       -0.81750       -1.63210
C          2.92930       -1.20870       -0.65580
C          2.71250       -2.65210       -0.32440
H          0.45920        0.94320        0.52330
H          0.40430       -0.85630        0.61090
H          0.46020       -0.03360       -0.99780
H          2.71610        0.00380        1.14870
H          2.85790        2.10850       -0.60540
H          3.26110       -3.30310       -1.03770
H          1.63040       -2.89060       -0.38110
H          3.07850       -2.85400        0.70360
