9
515	1
F          0.98660       -0.01710        0.06360
C          2.36760       -0.04560        0.11860
F          2.84830       -0.58590       -1.06220
C          2.87580        1.36610        0.23950
O          3.55730        1.71940        1.19040
C          2.78410       -0.90270        1.28370
O          3.46280       -1.90260        1.10990
H          2.63260        2.08480       -0.53620
H          2.47600       -0.63330        2.28920
