10
5887	3
O          1.16490       -0.11710        0.40530
C          2.32920       -0.06930        0.04170
N          3.07920       -1.15260       -0.22600
C          4.36830       -0.71820       -0.61710
C          4.43590        0.66980       -0.59660
C          3.11910        1.13110       -0.16990
O          2.75870        2.28750       -0.02220
H          2.76700       -2.13210       -0.15750
H          5.17930       -1.37970       -0.89110
H          5.29880        1.27140       -0.84900
