15
4083	1
N          0.84300       -0.07630       -0.16190
C          2.27330       -0.06950        0.15700
C          2.63190       -0.09820        1.65130
F          3.99650       -0.17280        1.87290
C          3.14320       -0.88140       -0.78020
C          3.13300        0.67280       -0.85260
O          4.29180        1.24880       -0.31480
H          0.42890       -0.96970        0.18890
H          0.66820       -0.02470       -1.19240
H          2.15570       -0.98410        2.12170
H          2.23630        0.81630        2.13940
H          2.62410       -1.31050       -1.66400
H          4.15100       -1.22030       -0.45640
H          2.77760        1.00870       -1.85140
H          5.03330        0.98370       -0.91820
