16
2432	1
N          1.48900       -0.96320       -0.25550
C          2.75620       -0.28550        0.00320
C          3.12080        0.67260       -1.15480
N          2.08750        1.69370       -1.33690
C          4.45100        1.36100       -0.95050
N          5.15210        1.16800        0.10980
O          6.30600        1.77990        0.26600
H          1.27740       -1.59140        0.55310
H          1.58760       -1.56220       -1.10710
H          3.55810       -1.04860        0.12280
H          2.67320        0.28830        0.95250
H          3.20320        0.07730       -2.09060
H          1.95790        2.23640       -0.45160
H          1.17830        1.24560       -1.59340
H          4.81390        2.03470       -1.72290
H          6.82710        1.63120        1.06590
