14
2354	1
F          0.63450       -0.59820        0.43880
C          1.87170       -0.05870        0.16310
C          2.94570       -1.08340        0.52450
C          4.34930       -0.58820        0.25610
C          5.16200       -1.21220       -0.60940
C          4.83460        0.56410        0.96550
C          5.22960        1.52880        1.56460
H          1.97600        0.87270        0.75120
H          1.90480        0.19340       -0.91350
H          2.73960       -2.01000       -0.04020
H          2.84600       -1.34150        1.59650
H          4.83840       -2.08870       -1.15610
H          6.17360       -0.85290       -0.78050
H          5.59930        2.37330        2.07810
