19
25	1
C          2.73400       -1.29270        0.23230
N          2.36410        0.12450        0.12800
C          2.94680        1.03500        1.14550
C          2.48450        2.46700        0.81090
C          2.45870        0.68190        2.56860
C          4.49040        1.00960        1.10410
H          2.23710       -1.85470       -0.58650
H          2.39450       -1.73430        1.19120
H          3.82440       -1.43590        0.09890
H          1.31870        0.18610        0.16020
H          1.37570        2.53840        0.83990
H          2.82320        2.75540       -0.20780
H          2.89730        3.19990        1.53780
H          1.34880        0.70280        2.61670
H          2.85330        1.41190        3.30820
H          2.80820       -0.32290        2.88210
H          4.85540        1.25660        0.08390
H          4.89280        0.01850        1.39710
H          4.91190        1.75190        1.81630
