16
1696	1
C          0.97310       -0.06890       -0.18040
C          2.50080       -0.02360       -0.12200
C          3.27840       -0.56010       -1.30750
C          3.08230        0.95960       -1.12170
C          4.39160        1.60340       -0.75120
C          5.45220        1.54870       -1.56290
H          0.61890       -0.99200        0.32310
H          0.58630       -0.06250       -1.22270
H          0.55970        0.81050        0.35620
H          3.01490        0.04180        0.86240
H          2.56570       -1.11910       -1.95100
H          4.15260       -1.08160       -0.86040
H          2.55990        1.29450       -2.04380
H          4.46910        2.13580        0.19170
H          5.39740        1.02980       -2.51520
H          6.38190        2.02760       -1.27350
