17
4047	1
C          0.76100        0.19060       -0.49310
C          2.25210       -0.07200       -0.21700
C          2.78790        0.00120        1.22600
C          2.23230       -1.10340        2.12560
F          0.86370       -0.98220        2.27760
C          2.96220       -0.94440       -1.14500
N          3.17560        0.53510       -1.18370
H          0.13950       -0.59360       -0.01720
H          0.52720        0.17940       -1.57950
H          0.47610        1.18150       -0.08230
H          2.53870        0.99320        1.65960
H          3.89700       -0.09260        1.22280
H          2.69850       -1.02220        3.13020
H          2.47450       -2.10190        1.70400
H          2.47700       -1.26410       -2.09450
H          3.91330       -1.41180       -0.81340
H          2.64750        0.91720       -2.00260
