20
542	1
C          0.98090       -0.14110       -0.16230
C          2.51460       -0.18730       -0.12210
N          3.06040       -0.21590       -1.48120
C          3.06740        1.02690        0.65480
C          4.60370        1.07000        0.74970
C          5.19910       -0.11110        1.52550
O          6.58680        0.04250        1.64840
H          0.58640       -1.02880       -0.70080
H          0.62910        0.77620       -0.68130
H          0.56950       -0.14930        0.86960
H          2.80530       -1.12270        0.40110
H          2.75230        0.63160       -2.01190
H          2.71380       -1.06670       -1.98150
H          2.64520        1.03170        1.68390
H          2.73320        1.95800        0.14600
H          4.88530        2.00680        1.27840
H          5.04450        1.10770       -0.26990
H          4.97240       -1.08330        1.03540
H          4.76200       -0.14370        2.54600
H          6.98000       -0.20680        0.77150
