13
2658	1
N          0.82350        1.01320       -1.26010
N          2.16720        1.27330       -1.26190
C          2.94820        0.58510       -0.51900
C          4.40740        0.74240       -0.57280
C          5.15350        0.01930        0.26650
C          5.03650        1.64250       -1.51440
C          5.57810        2.38750       -2.29230
H          0.18320        1.76800       -1.50610
H          0.52070        0.08140       -1.57110
H          2.52760       -0.12180        0.18420
H          4.68160       -0.66000        0.97290
H          6.23220        0.09060        0.26690
H          6.04920        3.04230       -2.97650
