14
1356	2
C          2.35550       -0.72020       -0.46190
N          1.80010       -0.02320        0.67600
C          2.52070        0.99810        1.35300
N          3.69990        1.33530        0.96890
O          4.36190        2.28240        1.60060
C          5.62210        2.64290        1.19090
H          1.62940       -1.47310       -0.83510
H          3.29080       -1.24100       -0.16670
H          2.57380        0.00120       -1.27760
H          0.85630       -0.27150        1.00750
H          2.06380        1.49590        2.20440
H          6.00340        3.45110        1.84830
H          5.58910        3.01310        0.14410
H          6.30620        1.77030        1.25600
