9
3833	1
O          3.09860        0.55130       -1.27580
C          2.37090        0.09470       -0.22950
O          1.17070        0.31450       -0.21120
C          2.97430       -0.66510        0.90070
F          2.15590       -1.08060        1.90510
C          4.27990       -0.95980        0.97850
F          4.75000       -1.65800        2.04530
H          4.04960        0.42010       -1.36580
H          4.98560       -0.66050        0.21590
