14
191	1
N          1.03710       -0.17240       -0.15560
C          2.49610       -0.14120       -0.15110
C          2.99650        1.21900        0.33860
C          4.50100        1.24030        0.37800
C          5.21010        2.11730       -0.33900
H          0.72690       -1.11770       -0.47740
H          0.68010        0.52930       -0.84450
H          2.87750       -0.33830       -1.17830
H          2.87150       -0.93920        0.52710
H          2.61350        1.40670        1.36450
H          2.60450        2.01570       -0.33210
H          5.02290        0.52510        1.00740
H          4.71960        2.84590       -0.97730
H          6.29400        2.10760       -0.28780
