15
1732	1
F          0.94660        3.64410       -0.23650
C          2.29120        3.38550       -0.42980
C          2.74370        2.28200        0.52960
C          4.22640        1.91740        0.36270
F          4.44770        1.45300       -0.92530
C          5.12340        3.08520        0.70440
C          5.98940        3.61060       -0.16980
H          2.86140        4.32060       -0.24770
H          2.44550        3.06770       -1.48270
H          2.13240        1.37380        0.33620
H          2.55720        2.60720        1.57670
H          4.46520        1.09280        1.06750
H          5.06080        3.51320        1.70070
H          6.08760        3.21790       -1.17640
H          6.61120        4.44940        0.12580
