14
4530	1
C          0.91110       -0.04740       -0.04910
C          2.40290       -0.02470       -0.04350
C          3.20340        1.10450       -0.04310
C          4.50400        0.64730       -0.03710
C          4.41300       -0.72860       -0.03420
N          5.50320       -1.62510       -0.02800
O          3.15510       -1.10220       -0.03810
H          0.50370        0.98570       -0.05300
H          0.54630       -0.57630        0.85570
H          0.55310       -0.58060       -0.95410
H          2.87840        2.13660       -0.04680
H          5.40590        1.24500       -0.03510
H          6.47000       -1.26920       -0.02520
H          5.33550       -2.64120       -0.02620
