12
395	1
C          0.91440        0.16660       -0.08520
C          2.41450        0.08130       -0.05920
F          3.12730        1.18950       -0.39650
C          3.08200       -1.03970        0.28190
C          2.40700       -2.32860        0.67420
F          4.44140       -1.01480        0.27430
H          0.60150        1.18560       -0.39520
H          0.50140       -0.03360        0.92600
H          0.50140       -0.56290       -0.81340
H          1.30040       -2.28000        0.65940
H          2.72480       -2.60440        1.70100
H          2.72480       -3.12960       -0.02500
