11
6077	1
N          1.03280        0.13450       -0.13070
C          2.44020        0.03450       -0.07120
N          3.27880        1.07740        0.04950
N          4.49940        0.54790        0.06660
N          4.41440       -0.77380       -0.04020
N          3.13920       -1.10390       -0.12550
N          2.64420       -2.41190       -0.25260
H          0.57810        1.05750       -0.08000
H          0.45370       -0.71180       -0.22100
H          3.44960       -3.07700       -0.25130
H          2.05460       -2.61450        0.58550
