15
1170	1
C          0.92190       -0.00020        0.08780
C          2.42340       -0.02220        0.07790
C          3.11110       -1.04530       -0.45230
C          3.12640        1.05900        0.63810
C          3.72150        1.97410        1.11220
C          4.44350        3.08450        1.68750
O          5.58730        3.39020        0.90100
H          0.49380       -0.89530       -0.37630
H          0.54850        0.87030       -0.46210
H          0.54710        0.05270        1.11570
H          2.60700       -1.89810       -0.89550
H          4.19720       -1.05860       -0.46050
H          4.78030        2.85760        2.70350
H          3.81930        3.98160        1.73480
H          6.06440        2.55300        0.76880
