17
2085	1
C          1.26940        0.45210       -0.68420
C          2.67860        0.52620       -0.09640
C          3.17460       -0.79890        0.43270
O          2.46960       -1.79710        0.37340
C          4.54410       -0.89390        1.04610
C          5.39030       -1.87720        0.28280
C          6.53490       -1.51240       -0.30310
H          0.96760        1.45480       -1.05380
H          0.54390        0.12710        0.09190
H          1.24310       -0.26210       -1.53480
H          2.67970        1.26540        0.73310
H          3.37570        0.87760       -0.88720
H          4.44960       -1.23730        2.09790
H          5.02100        0.11130        1.05630
H          5.06300       -2.91030        0.20760
H          6.89150       -0.48840       -0.24720
H          7.12270       -2.24560       -0.84570
