18
1463	1
C          0.96820       -0.01050       -0.05070
C          2.49410       -0.04540        0.12610
C          3.36570       -0.82780       -0.89360
N          2.59960       -1.48910       -1.95630
C          3.38110        0.71700       -0.84330
C          2.77400        1.62340       -1.92690
O          4.55110        1.20700       -0.24880
H          0.52840       -0.86570        0.50260
H          0.61740       -0.07380       -1.09720
H          0.57690        0.92950        0.39040
H          2.89710        0.01740        1.16090
H          4.01980       -1.48380       -0.28050
H          2.12470       -0.84900       -2.62560
H          1.92220       -2.16970       -1.54310
H          1.82270        1.26740       -2.35950
H          3.50660        1.74090       -2.75220
H          2.57960        2.62320       -1.48610
H          5.28970        0.97590       -0.86970
