12
462	1
F          2.58680       -0.86840       -0.98560
C          2.18120        0.08800       -0.07070
C          2.88100       -0.12030        1.27150
F          2.40490        0.82260        2.16920
F          2.57310       -1.37940        1.75490
C          4.37960       -0.01790        1.10390
C          5.11930        0.89290        1.74750
H          1.08200        0.00560        0.06550
H          2.41250        1.09820       -0.47140
H          4.87690       -0.71400        0.43430
H          4.67200        1.61040        2.42740
H          6.19280        0.92240        1.59160
