14
3026	1
C          0.98890       -0.15020       -0.19580
C          2.48620       -0.05650       -0.08240
C          3.19860        1.07500       -0.24720
C          2.69260        2.45150       -0.52540
F          3.35350        3.34650        0.25970
C          3.18920       -1.24080        0.20030
C          3.78430       -2.24340        0.43960
H          0.52780        0.75720       -0.59280
H          0.54730       -0.35200        0.78610
H          0.70930       -0.96700       -0.87090
H          4.28320        1.03060       -0.15210
H          1.62710        2.57480       -0.32320
H          2.89050        2.72130       -1.56650
H          4.31860       -3.13910        0.65540
