14
296	1
C          0.95260       -0.13390        0.00480
C          2.43910       -0.12560        0.22400
F          2.89480        0.44750        1.36530
C          3.26840       -0.67340       -0.69420
C          4.76570       -0.74900       -0.63150
N          5.45000       -1.36980       -1.70770
N          5.46070       -0.28010        0.34770
H          0.57970        0.91130       -0.00800
H          0.46390       -0.68080        0.83760
H          0.66540       -0.62100       -0.95180
H          2.81440       -1.11050       -1.57950
H          4.92930       -1.75670       -2.50820
H          6.47820       -1.44020       -1.69940
H          5.06820        0.18500        1.17060
