15
4225	2
N          0.98530       -0.06530       -0.13400
C          2.43960       -0.09430       -0.01100
C          3.04290        1.07300        0.79200
N          4.29260        0.51100        1.21810
C          4.27480       -0.82770        1.15780
O          5.17070       -1.51590        1.62080
C          2.98990       -1.37250        0.64550
H          0.70320        0.82550       -0.60350
H          0.55590       -0.08270        0.81960
H          2.91020       -0.04530       -1.02190
H          2.45410        1.31990        1.70240
H          3.16350        1.96830        0.14500
H          5.04550        1.05020        1.67080
H          2.39840       -1.70250        1.52680
H          3.08440       -2.18530       -0.10640
