15
5259	1
C          0.98710        0.12740       -0.00260
N          2.42590        0.08750        0.10700
O          3.09210        1.18540        0.54580
C          4.27830        1.30420       -0.20780
C          5.16690        0.07900        0.05440
N          4.41410       -1.13860       -0.17470
C          3.12540       -1.12910       -0.17480
H          0.60670        1.13260        0.27790
H          0.53590       -0.62720        0.67590
H          0.68450       -0.08960       -1.04870
H          4.81910        2.22980        0.08060
H          4.02880        1.38690       -1.29080
H          5.52830        0.07830        1.10490
H          6.04390        0.11660       -0.62560
H          2.57950       -2.04030       -0.39900
