14
3822	1
C          0.83910        0.05730        0.03160
C          2.33160       -0.08630        0.12680
C          3.10430       -0.29390       -0.95810
F          2.53060       -0.37920       -2.19010
C          4.58120       -0.43590       -0.86270
C          5.30940       -0.35710        0.45040
O          5.22330       -0.62250       -1.88480
H          0.54320        1.04900        0.43220
H          0.35820       -0.73510        0.64180
H          0.46410       -0.02620       -1.00980
H          2.77600       -0.01640        1.11380
H          4.95020       -1.15830        1.12980
H          5.13610        0.63420        0.91910
H          6.40250       -0.48810        0.30040
