14
2675	1
C          0.98470       -0.05110       -0.00580
C          2.44710       -0.08350       -0.02050
C          3.65250       -0.11020       -0.03200
C          5.11900       -0.14330       -0.04580
F          5.58990        0.97050       -0.71740
C          5.66550       -0.15830        1.38210
O          7.06710       -0.17500        1.36820
H          0.60200       -0.15300       -1.04220
H          0.64030        0.91260        0.42240
H          0.60240       -0.88850        0.61350
H          5.45000       -1.05700       -0.58340
H          5.27740       -1.03730        1.94730
H          5.33200        0.75330        1.92360
H          7.33880       -1.10780        1.16370
