12
4743	1
N          0.90200        0.11270        0.00280
C          2.31390        0.07420        0.00820
C          3.15690        1.16570        0.01160
N          4.43340        0.73700        0.01650
H          5.28820        1.33630        0.01980
C          4.39990       -0.61050        0.01620
F          5.50490       -1.39520        0.02040
C          3.09540       -1.06110        0.01110
H          0.40730        1.01630        0.00100
H          0.35880       -0.76270        0.00060
H          2.86140        2.20690        0.01060
H          2.75890       -2.08940        0.00970
