8
60	1
C          0.94080       -0.11430       -0.24480
N          2.14280        0.25620        0.00820
N          2.47150        0.75700        1.24340
C          3.67360        1.12760        1.49630
H          0.69320       -0.50820       -1.22430
H          0.16520       -0.03800        0.51240
H          3.92120        1.52160        2.47580
H          4.44910        1.05150        0.73900
