17
3484	1
C          1.20080        0.19400       -0.15490
C          2.70120       -0.08890       -0.22800
C          3.39690        0.03120        1.10750
O          2.76620        0.32850        2.11310
C          4.88400       -0.21760        1.20420
C          5.63090        1.03480        1.67420
O          5.14730       -1.30560        2.05420
H          0.75300        0.08930       -1.16560
H          1.02030        1.22860        0.20750
H          0.70480       -0.52740        0.52920
H          3.16450        0.63000       -0.93730
H          2.85050       -1.11900       -0.61700
H          5.27430       -0.47620        0.19580
H          5.29240        1.33960        2.68770
H          5.45030        1.87370        0.96840
H          6.72200        0.83080        1.70950
H          4.86040       -1.05360        2.97130
