11
2315	3
N          2.51350        1.43020       -0.13410
C          2.20420        0.19060       -0.04610
N          3.09700       -0.79530        0.48120
C          4.42590       -0.61020        1.00100
N          5.02010        0.53200        1.05960
C          5.13240       -1.76890        1.48750
N          5.69060       -2.70540        1.87540
H          1.83980        2.10740       -0.52130
H          1.22360       -0.13120       -0.38580
H          2.73440       -1.76030        0.49060
H          4.62300        1.42140        0.74830
