19
1317	1
C          0.85100       -0.01560        0.11890
C          2.38120       -0.06310       -0.04710
C          2.76910       -0.04360       -1.54160
N          3.10250        1.01240        0.65510
C          4.00220       -0.02050        1.19620
C          3.05770       -1.14680        0.80100
N          3.67560       -2.28810        0.12300
H          0.43950        0.88850       -0.37780
H          0.56480        0.01670        1.19190
H          0.39250       -0.91800       -0.33880
H          2.35240        0.86410       -2.02770
H          2.36180       -0.93910       -2.05690
H          3.87050       -0.01750       -1.68090
H          2.52170        1.35200        1.45930
H          4.21050        0.05930        2.28640
H          4.93290       -0.01710        0.58330
H          2.43630       -1.42800        1.68090
H          4.33900       -1.99090       -0.62650
H          2.91940       -2.87080       -0.30220
