15
4921	1
O          1.16750       -0.27040        0.95160
C          2.17320       -0.16080       -0.01780
C          3.09900        1.05680        0.25960
N          4.09920        0.13740        0.67670
C          3.38270       -1.05580        0.36170
N          4.73400        0.30450        1.89080
C          5.48200       -0.61220        2.39710
H          0.54290        0.48100        0.77940
H          1.81780       -0.29600       -1.06300
H          2.76800        1.73120        1.08070
H          3.44420        1.57040       -0.66330
H          3.21760       -1.71640        1.24190
H          3.86760       -1.54500       -0.51030
H          5.96440       -0.44490        3.35350
H          5.64870       -1.55030        1.87560
