13
4287	1
C          1.11610        0.00600        0.21530
C          2.40860        0.09180       -0.10640
C          3.22300        1.36150       -0.17420
N          4.50900        0.80440       -0.56560
C          4.43010       -0.53360       -0.69390
O          5.37530       -1.23700       -1.01410
N          3.21330       -1.01040       -0.43490
H          0.55260        0.90090        0.45900
H          0.61880       -0.95850        0.23580
H          3.29030        1.86140        0.81520
H          2.83800        2.05720       -0.94970
H          5.36460        1.35680       -0.72360
H          2.92620       -2.00000       -0.47110
