17
3080	1
C          3.47090        0.37420        1.18770
C          2.95350        0.29730       -0.25010
F          3.41910        1.39050       -0.96250
C          3.33290       -1.02130       -0.97230
N          2.69690       -1.07260       -2.29180
C          4.85430       -1.20670       -1.13100
O          5.13670       -2.43470       -1.74860
H          3.10740        1.31120        1.66030
H          4.57890        0.38890        1.22050
H          3.09480       -0.48770        1.77890
H          1.84400        0.35740       -0.20180
H          2.94420       -1.87300       -0.37030
H          3.01720       -0.27070       -2.88280
H          1.65760       -1.01850       -2.18830
H          5.35170       -1.21500       -0.14080
H          5.30270       -0.36760       -1.71130
H          5.05020       -2.29290       -2.72720
