19
4972	1
C          3.99250       -0.14130       -2.35860
N          3.65940        0.48160       -1.06490
C          2.32780        1.10370       -1.14920
C          3.68890       -0.49670        0.04370
C          5.11680       -1.02860        0.29230
C          5.96080       -0.26650        1.20540
N          5.35560       -1.54970        1.64890
H          3.93540        0.61200       -3.17410
H          3.30020       -0.98000       -2.59390
H          5.03610       -0.51550       -2.35860
H          2.31120        1.87140       -1.95280
H          2.08440        1.62570       -0.19870
H          1.54040        0.34460       -1.35710
H          3.01550       -1.35660       -0.17160
H          3.30880       -0.00410        0.96780
H          5.64520       -1.64190       -0.46700
H          5.53340        0.57070        1.80190
H          7.05720       -0.41390        1.11350
H          4.54860       -1.32810        2.27720
