14
816	2
N          3.23940        0.86000        1.15250
C          2.51290       -0.23940        0.60540
N          1.22860       -0.18130        0.55790
N          3.16460       -1.41290        0.10410
N          4.54110       -1.57280        0.10880
C          5.19970       -2.74250       -0.38970
N          4.57210       -3.75200       -0.88640
H          2.73150        1.68570        1.50230
H          4.26250        0.87330        1.21830
H          0.71410        0.64120        0.90600
H          2.55850       -2.15260       -0.27000
H          5.14870       -0.83540        0.48060
H          6.28330       -2.78100       -0.34680
H          3.55210       -3.81430       -0.97160
