14
4576	1
C          0.99010        0.10820       -0.05400
C          2.48430        0.06380       -0.13880
C          3.20690       -1.02780       -0.06780
C          4.64610       -0.68650       -0.18730
F          5.31400       -1.04560        0.97010
C          4.58140        0.85300       -0.34790
O          3.23540        1.15810       -0.29730
H          0.56400       -0.90950        0.07730
H          0.58160        0.55020       -0.98640
H          0.68900        0.73700        0.80940
H          2.80980       -2.02660        0.06190
H          5.09530       -1.18060       -1.07500
H          4.99510        1.16660       -1.33020
H          5.11620        1.37110        0.47680
