10
5203	1
O          0.98800       -0.09700        0.04210
C          2.20670       -0.08250        0.04480
N          2.88940        1.10340        0.04800
O          4.20220        1.11170        0.05100
C          4.89740       -0.01970        0.05100
N          4.24690       -1.21110        0.04780
N          2.91620       -1.24990        0.04480
H          2.37020        2.00980        0.04810
H          5.97830        0.00790        0.05340
H          2.42450       -2.17150        0.04240
