12
2185	2
C          4.76840       -1.79880        2.53270
O          5.09990       -0.46140        2.46840
C          4.50730        0.41470        1.61590
O          3.63320        0.03110        0.84660
N          4.89610        1.71870        1.62900
C          4.34820        2.65160        0.80640
O          4.73070        3.80990        0.85650
H          4.95630       -2.28860        1.55320
H          3.69940       -1.91560        2.81270
H          5.39470       -2.29200        3.30410
H          5.63440        2.00780        2.28940
H          3.56870        2.38500        0.09810
