16
5222	1
F          1.18130       -0.15290        0.72860
C          2.46880       -0.00000        0.24620
C          2.49690        1.23870       -0.66610
C          3.80920        1.27110       -1.43340
C          3.88500        0.04970       -2.36450
C          3.51410       -1.23950       -1.66690
C          2.89610       -1.26170       -0.47080
H          3.15290        0.13100        1.11190
H          2.36630        2.15270       -0.04780
H          1.66390        1.19410       -1.40300
H          4.64480        1.24650       -0.69860
H          3.90390        2.19890       -2.03740
H          4.92680       -0.01090       -2.74510
H          3.20290        0.16490       -3.23400
H          3.75220       -2.17990       -2.15430
H          2.70180       -2.21940        0.00260
