9
4538	1
F          1.00000        0.05570       -0.02130
C          2.35480        0.06780       -0.01390
C          3.15090        1.19410       -0.01160
C          4.45060        0.73560       -0.00360
C          4.36380       -0.64090       -0.00160
F          5.41110       -1.50050        0.00580
O          3.10400       -1.01020       -0.00780
H          2.82320        2.22500       -0.01530
H          5.35270        1.33270        0.00020
