21
3054	1
C          3.19100       -1.01020        0.46610
C          2.65440        0.42080        0.39620
C          3.17500        1.23060       -0.81880
C          2.43800        2.58300       -0.86050
C          4.72560        1.39640       -0.80110
C          5.28430        2.11090       -2.04300
O          5.16560        2.02320        0.37930
H          2.72280       -1.53510        1.32540
H          4.28770       -1.02750        0.62410
H          2.93980       -1.56150       -0.46480
H          2.90040        0.94830        1.34370
H          1.54680        0.34680        0.32290
H          2.89760        0.67680       -1.74360
H          2.65320        3.18740        0.04550
H          1.34060        2.41650       -0.91120
H          2.71520        3.16580       -1.76140
H          5.18180        0.38600       -0.83050
H          4.94070        3.16370       -2.10130
H          4.97330        1.57560       -2.96510
H          6.39420        2.11950       -1.99890
H          4.95740        2.99080        0.31120
