17
941	1
C          0.82420        0.78380       -0.07980
C          2.25310        0.85910       -0.53110
C          2.68340        0.20840       -1.61800
O          3.98900        0.31140       -1.98040
C          4.60780       -0.26630       -3.05240
C          6.07850       -0.00830       -3.22280
C          3.96280       -1.04350       -3.94740
H          0.78730        0.36660        0.94780
H          0.20850        0.14160       -0.74570
H          0.38950        1.80480       -0.07140
H          2.95090        1.46000        0.04520
H          1.98160       -0.38850       -2.18660
H          6.62070       -0.37480       -2.32630
H          6.24920        1.08360       -3.32580
H          6.49950       -0.51470       -4.11810
H          2.90750       -1.26360       -3.87870
H          4.50050       -1.47980       -4.78380
