12
5834	1
N          1.11110       -0.02990       -0.13390
N          2.47750       -0.04880        0.13130
C          3.27270       -1.17700        0.31090
N          4.49360       -0.86290        0.54950
C          4.66970        0.59080        0.55910
C          3.26010        1.02070        0.27000
O          2.86610        2.17260        0.17350
H          0.76140       -1.01320       -0.20170
H          0.96770        0.43050       -1.06160
H          2.91680       -2.19750        0.25910
H          5.36780        0.91290       -0.24200
H          5.00610        0.94430        1.55640
