11
6036	1
N          0.90820        0.18200       -0.30320
N          2.30570        0.12240       -0.16460
C          3.15530        1.15970       -0.12620
N          4.42450        0.71790        0.01350
N          4.38080       -0.60990        0.06330
C          3.08630       -0.96130       -0.04650
O          2.63870       -2.23070       -0.03860
H          0.52610        0.70080        0.52000
H          0.51560       -0.78690       -0.28840
H          2.86820        2.20060       -0.19680
H          3.25480       -2.97100        0.05010
