14
3709	2
C          1.23650        0.56700        0.85710
O          2.57210        0.25300        0.69890
C          3.11320       -0.99950        0.76480
C          2.35190       -2.09010        1.00170
C          4.58400       -1.14510        0.56750
N          5.35640       -0.05780        0.32940
O          5.10570       -2.25020        0.61930
H          1.10820        1.66350        0.74910
H          0.88820        0.27020        1.86940
H          0.62710        0.06310        0.07690
H          1.28070       -2.01600        1.14900
H          2.79390       -3.08040        1.05170
H          4.94610        0.88580        0.28010
H          6.37290       -0.16310        0.19360
