14
5634	1
N          1.03240       -0.11410        0.40800
N          2.36430       -0.02500        0.01410
C          3.09730        1.19400       -0.17200
C          4.50690        0.66260       -0.60930
O          4.41130       -0.72690       -0.61000
C          3.18490       -1.10580       -0.25430
N          2.81090       -2.33030       -0.16500
H          0.65680        0.84940        0.56270
H          1.00020       -0.62820        1.31780
H          3.15150        1.75160        0.78760
H          2.62820        1.80930       -0.96960
H          5.29000        0.98480        0.10970
H          4.76110        1.01710       -1.63100
H          3.46850       -3.09560       -0.37260
