16
5638	1
C          1.19840       -0.06200        0.09000
N          2.60330       -0.01300       -0.24690
N          3.30800        1.17920       -0.32060
C          4.60550        0.75350       -0.88990
C          4.81570       -0.75210       -0.58990
C          3.41020       -1.13870       -0.40710
N          2.98820       -2.34310       -0.25650
H          0.79500        0.96580        0.21020
H          1.05870       -0.61480        1.04270
H          0.63720       -0.57420       -0.71950
H          3.44140        1.51610        0.66120
H          5.46310        1.39860       -0.60290
H          4.48260        0.84130       -1.99290
H          5.32740       -0.92290        0.38110
H          5.34950       -1.25260       -1.42600
H          3.63690       -3.14120       -0.32180
