19
1217	1
C          0.74610       -0.00780       -0.34210
C          2.12600       -0.08790        0.26120
C          2.20130       -0.46540        1.72410
C          3.20320        0.17970       -0.52260
C          4.65630        0.14870       -0.09900
C          5.30390        1.51960       -0.30240
O          4.72200        2.47550        0.54380
H          0.24510       -0.99460       -0.25330
H          0.76340        0.27460       -1.41660
H          0.14670        0.75080        0.20370
H          1.62910        0.27820        2.31750
H          3.21000       -0.51640        2.16150
H          1.73330       -1.46220        1.86440
H          3.02680        0.44450       -1.56220
H          5.17970       -0.59170       -0.74040
H          4.82900       -0.15520        0.94580
H          5.23740        1.83960       -1.36820
H          6.38500        1.45130       -0.05760
H          3.92410        2.83070        0.07210
