14
1648	1
C          0.82150        0.07440        0.08790
C          2.30930        0.24910        0.01370
C          3.10810       -0.09750        1.03350
C          4.59470        0.07730        0.94350
C          5.11860        1.44890        0.69830
O          5.00580        0.92280        1.99290
H          0.49170       -0.60060       -0.72880
H          0.33120        1.06180       -0.03860
H          0.50030       -0.35970        1.05910
H          2.73850        0.66680       -0.89290
H          2.68670       -0.52160        1.94060
H          5.25940       -0.81110        0.96450
H          4.39060        2.27830        0.57400
H          6.19060        1.53340        0.42510
