14
1757	1
C          0.96050       -0.04970        0.00870
O          2.36950       -0.05620        0.02530
C          2.83770       -1.25110       -0.56520
C          4.36680       -1.27530       -0.54050
F          4.86220       -0.18930       -1.24040
C          4.88600       -1.23300        0.86750
O          5.57090       -2.14610        1.30010
H          0.61100        0.89730        0.46880
H          0.54460       -0.88140        0.61980
H          0.56680       -0.07020       -1.03190
H          2.51880       -1.30870       -1.63130
H          2.46680       -2.14370       -0.00940
H          4.71590       -2.20620       -1.03930
H          4.65630       -0.38620        1.50640
