13
1423	2
N          0.86490       -0.17230       -0.06310
C          2.27970       -0.11820       -0.00190
C          3.02310       -0.42690       -1.07250
C          4.49420       -0.37200       -1.01340
N          5.18700       -0.67290       -2.05450
N          6.56140       -0.63240       -2.03480
H          0.30750        0.06810        0.76890
H          0.38150       -0.44950       -0.93040
H          2.75780        0.17800        0.92800
H          2.54060       -0.72260       -2.00050
H          4.98880       -0.07740       -0.09020
H          7.09030       -0.87850       -2.88300
H          7.07440       -0.35900       -1.18260
