9
74	1
F          1.00780       -0.02100       -0.17000
C          2.37640        0.10150       -0.00330
C          3.03440       -0.86850       -0.96740
C          3.16220        0.62770       -1.19160
H          2.81840       -0.15670        0.98230
H          2.48310       -1.23090       -1.86140
H          4.07640       -1.20740       -0.78410
H          2.41320        1.16320       -1.81390
H          4.00110        1.18900       -0.72800
