17
6307	1
C          1.04470       -0.07300        0.04030
C          2.57220       -0.08430        0.00740
C          3.28140        1.02830        0.77200
F          2.48280        1.52440        1.79150
C          4.13130       -0.10730        1.32520
N          3.16740       -1.11970        0.86290
C          3.79070       -2.21550        0.10580
H          0.66530        0.81490       -0.50750
H          0.66650       -0.04860        1.08420
H          0.65920       -0.99030       -0.45210
H          2.96670       -0.13180       -1.03710
H          3.78890        1.82680        0.19050
H          4.27340       -0.08830        2.42710
H          5.09490       -0.16760        0.76410
H          4.37300       -2.85750        0.79970
H          4.47040       -1.84830       -0.69550
H          2.99780       -2.83890       -0.35850
