16
4566	1
C          0.89430        0.09150        0.05670
C          2.42310        0.03620        0.00040
C          3.00460       -1.22650        0.65400
C          3.21060       -0.86640        2.12820
C          3.43510        0.60210        2.02070
F          3.88620        1.37830        3.03990
C          3.00500        1.09660        0.87220
H          0.46730       -0.74630       -0.53400
H          0.53380        1.04830       -0.37770
H          0.52690        0.01150        1.10280
H          2.76210        0.09730       -1.05700
H          4.03730       -1.31170        0.23880
H          2.49910       -2.19150        0.43700
H          4.06870       -1.43540        2.54630
H          2.29630       -1.02400        2.73940
H          2.98420        2.15580        0.65060
