13
1653	1
N          0.99190        0.70980       -1.19200
N          2.26040        1.19250       -1.41240
C          3.28840        0.64260       -0.87050
N          4.58310        1.17210       -1.12300
C          5.69090        0.31860       -1.33430
C          5.53420        1.29750       -0.08380
H          0.18680        1.17050       -1.63860
H          0.83100       -0.10840       -0.58470
H          3.17100       -0.22340       -0.22100
H          6.20240        0.66450       -2.25600
H          5.38370       -0.74560       -1.23310
H          5.93540        2.33090       -0.12750
H          5.11940        0.90060        0.86890
