15
199	1
C          0.80490        0.20600        0.22520
C          2.32810        0.06760        0.06990
O          2.92550       -0.42550        1.24500
C          2.72420       -0.77860       -1.15730
C          2.23710       -2.20210       -1.09800
O          1.38410       -2.65740       -2.04000
O          2.62710       -2.95140       -0.21500
H          0.57430        0.86550        1.08850
H          0.33060       -0.78340        0.39810
H          0.36640        0.65680       -0.69040
H          2.72600        1.09270       -0.09360
H          2.38450       -1.18770        1.57760
H          3.83100       -0.78400       -1.25750
H          2.30430       -0.29410       -2.06600
H          1.06380       -3.57050       -2.02580
