10
273	1
C          0.99430        0.01610        0.09850
C          2.45730        0.00890        0.09410
C          3.66290        0.00240        0.09020
C          5.12600       -0.00570        0.08520
F          5.58270       -1.15310        0.70470
F          5.58270        0.02640       -1.21840
H          0.61890       -0.63640       -0.71650
H          0.62880        1.05160       -0.05900
H          0.62540       -0.36190        1.07420
H          5.50280        0.88380        0.63070
