18
6286	1
C          0.95090        0.05360       -0.05520
C          2.47670        0.05390       -0.03500
C          3.17210        1.12580        0.81120
C          4.21310        0.06440        1.19720
C          5.43210        0.07900        0.25510
C          3.17100       -1.00430        0.82730
F          3.63450       -2.12040        0.15120
H          0.58600        0.95460       -0.59120
H          0.54200        0.05840        0.97750
H          0.58650       -0.85280       -0.58220
H          2.91090        0.05260       -1.06080
H          2.54970        1.33020        1.71450
H          3.50090        2.06880        0.32440
H          4.55660        0.07310        2.25470
H          5.15330        0.07630       -0.81890
H          6.06230       -0.81320        0.45410
H          6.03900        0.98730        0.45400
H          2.55380       -1.24360        1.72440
