16
4935	1
C          2.51480       -1.41880        0.14960
C          2.48720        0.09200       -0.06340
C          2.79800        0.45880       -1.52090
C          3.04850        2.03880       -1.77070
C          4.40260        1.50490       -2.07170
O          5.45280        2.02250       -2.41650
N          4.17340        0.24540       -1.85890
H          2.26900       -1.64930        1.20760
H          3.52310       -1.82580       -0.07540
H          1.76670       -1.91380       -0.50560
H          3.22350        0.57090        0.61880
H          1.47420        0.47110        0.19000
H          2.12200       -0.01620       -2.26720
H          3.10870        2.68880       -0.87170
H          2.60740        2.46490       -2.69650
H          4.77870       -0.58560       -1.92590
