19
4132	1
C          1.03060       -0.70110        0.31780
C          2.35640       -0.00250        0.00350
C          2.99440       -0.30940       -1.37320
C          4.36860        0.32940       -1.61850
O          2.96500       -1.67520       -1.70830
C          2.14720       -0.81510       -2.49440
C          2.60890       -0.80870       -3.95340
H          0.70930       -0.42990        1.34560
H          1.14860       -1.80410        0.26660
H          0.23210       -0.37170       -0.37810
H          3.08580       -0.29950        0.78780
H          2.20030        1.09480        0.08150
H          5.02820        0.11880       -0.75060
H          4.25090        1.42910       -1.71110
H          4.89810       -0.05300       -2.50850
H          1.08070       -1.05310       -2.31790
H          3.70080       -0.74050       -4.09740
H          2.12600        0.04030       -4.47960
H          2.27530       -1.75150       -4.43490
