16
326	1
C          0.97320        0.02010        0.04950
C          2.49780       -0.03240       -0.00040
F          2.95650       -0.14340       -1.30650
C          3.27220        1.06290        0.73410
C          4.30680       -0.01040        1.11280
O          5.27820       -0.13770        0.10560
C          3.20480       -1.05520        0.89090
H          0.61060        0.89590       -0.52840
H          0.61630        0.10900        1.09750
H          0.55300       -0.90620       -0.39520
H          2.71930        1.34200        1.66230
H          3.59910        1.96370        0.17200
H          4.78230        0.02330        2.11800
H          5.81900        0.69390        0.13710
H          2.63840       -1.15880        1.84690
H          3.47210       -2.04800        0.47020
