13
5456	1
C          0.97920        0.05500        0.04760
C          2.47190        0.11500       -0.08840
C          3.12710        1.29390       -0.14230
O          4.48380        1.29870       -0.26610
C          5.19330        0.13850       -0.33670
C          4.54310       -1.03590       -0.28330
O          3.18680       -1.04380       -0.15950
H          0.52570        1.06840        0.09400
H          0.71700       -0.49300        0.97630
H          0.55270       -0.48400       -0.82380
H          2.59010        2.23580       -0.08850
H          6.27340        0.16580       -0.43520
H          5.09040       -1.97110       -0.33800
