14
3680	4
C          1.21520        0.30960       -0.32980
N          2.58150        0.09560       -0.75050
C          3.06400       -1.04850       -1.11920
N          2.25330       -2.22420       -1.13790
C          4.49170       -1.13680       -1.53080
N          5.28980       -0.04060       -1.52530
O          4.95440       -2.21260       -1.87970
H          1.08020        1.37990       -0.07200
H          0.98940       -0.30000        0.57110
H          0.51420        0.05550       -1.15340
H          1.26250       -2.20450       -0.86080
H          2.65250       -3.12640       -1.43390
H          4.93000        0.88040       -1.23670
H          6.27680       -0.11690       -1.81310
