15
3303	1
C          1.01400        0.04740       -0.16050
C          2.54080        0.03580       -0.12550
C          3.07590       -0.95120        0.92000
F          2.62230       -2.22880        0.62530
C          4.58630       -0.89530        0.96350
F          5.19020        0.28250        1.27620
C          5.34990       -1.96530        0.70900
H          0.66550        0.77670       -0.92190
H          0.60800        0.34590        0.82950
H          0.62170       -0.95650       -0.42850
H          2.89310        1.06270        0.11600
H          2.92350       -0.24310       -1.13180
H          2.69320       -0.66880        1.92440
H          4.91580       -2.92690        0.45610
H          6.43090       -1.87990        0.75320
