13
1637	1
O          0.98460       -0.07390        0.12710
C          2.38380        0.05180        0.13360
C          2.78070        1.43630        0.67570
F          2.27900        2.43070       -0.14560
C          2.95990       -1.08380        0.99590
C          4.42980       -1.09280        0.99640
N          5.58710       -1.10370        0.99970
H          0.62730        0.60960       -0.49750
H          2.77100       -0.07170       -0.90480
H          3.88450        1.54520        0.70980
H          2.37320        1.57560        1.69950
H          2.61570       -2.05950        0.59120
H          2.59580       -0.99190        2.04150
