16
1616	1
C          1.24820       -0.85760        0.69930
C          2.12600       -0.37250       -0.18390
C          2.99110        0.81440        0.13280
C          4.46550        0.39950        0.06100
C          5.24730        0.70260       -1.20400
C          5.38540        1.60340        0.02920
H          0.63750       -1.71610        0.43950
H          1.13290       -0.40630        1.68010
H          2.21700       -0.84640       -1.15710
H          2.78330        1.20400        1.15360
H          2.75350        1.62190       -0.59390
H          4.86920       -0.33070        0.79580
H          4.50860        0.95870       -1.99360
H          5.92690       -0.16700       -1.33060
H          5.02290        2.59430       -0.31960
H          6.44510        1.48470        0.33950
