11
3375	1
O          0.94900       -0.29290       -0.03650
C          2.32460       -0.02230       -0.06060
C          2.70790        0.42220       -1.41310
N          3.00990        0.76910       -2.47520
C          2.64770        0.96480        1.04480
F          2.35120        0.60730        2.32280
C          3.20760        2.16650        0.83410
H          0.82500       -1.20730       -0.40430
H          2.90150       -0.94620        0.17320
H          3.46910        2.51540       -0.15850
H          3.40990        2.82020        1.67640
