10
4549	1
O          1.07580        0.04880        0.00800
C          2.42130        0.05350        0.01320
C          3.24110        1.15920        0.01270
N          4.51880        0.73170        0.01910
C          4.41520       -0.61600        0.02320
O          5.47120       -1.44900        0.03010
O          3.16590       -1.02120        0.01970
H          0.57600        0.87710        0.00330
H          2.93780        2.19770        0.00810
H          6.37420       -1.10220        0.03250
