13
658	2
C          0.84810       -0.17340        0.80630
C          2.11720       -0.09150       -0.04220
C          1.96960        0.79870       -1.25380
O          0.91160        1.37080       -1.47900
N          3.01840        0.96350       -2.09700
O          2.90970        1.75350       -3.17600
H          1.02480       -0.84050        1.67630
H          0.00900       -0.58700        0.20710
H          0.56970        0.83410        1.18290
H          2.38460       -1.11510       -0.38190
H          2.94300        0.30000        0.58990
H          3.91300        0.48630       -1.90830
H          2.68210        1.13950       -3.92070
