12
5431	1
F          0.92960        0.08450        0.08320
C          2.28760        0.03140        0.08120
C          2.99080        1.16620        0.08930
C          4.45970        1.12550        0.08730
N          5.08700        0.00120        0.07780
N          4.42320       -1.21000        0.06910
C          2.97160       -1.31060        0.07000
H          2.47960        2.12380        0.09730
H          5.02150        2.05330        0.09380
H          4.97660       -2.07880        0.06180
H          2.65130       -1.87840        0.96870
H          2.64930       -1.86430       -0.83680
