13
787	1
N          2.02770        1.15950       -1.29450
C          1.91060        0.39280       -0.10490
N          1.05200        0.71840        0.79520
C          2.78940       -0.80590        0.10230
O          4.11410       -0.40540        0.12480
C          5.07180       -0.83610       -0.73780
O          4.81460       -1.63440       -1.62660
H          1.42940        1.98420       -1.44900
H          2.71320        0.89570       -2.01700
H          0.43610        1.53610        0.67590
H          2.58140       -1.54010       -0.70610
H          2.55260       -1.29410        1.07230
H          6.08420       -0.46180       -0.63540
