17
3474	1
C          2.11880        0.23990        1.54790
C          2.63750        0.09480        0.11770
F          1.67480       -0.51120       -0.67140
C          3.01920        1.43250       -0.48080
C          2.08840        2.38170       -0.67790
C          4.45770        1.68860       -0.86620
N          5.31720        1.58380        0.30810
H          1.86940       -0.76180        1.95700
H          1.20490        0.86950        1.58080
H          2.89930        0.70020        2.19100
H          3.52890       -0.56940        0.14770
H          1.05030        2.20600       -0.41310
H          2.35330        3.34210       -1.10960
H          4.58620        2.69540       -1.32480
H          4.76620        0.93060       -1.61780
H          5.05970        2.33670        0.98750
H          6.30680        1.74540        0.01230
