17
1978	2
C          0.92170       -0.53920        0.16650
N          2.36110       -0.46560        0.04230
C          3.15850       -1.53540        0.30540
O          2.66550       -2.59940        0.65860
C          4.65620       -1.40050        0.15710
C          5.41790       -2.69140        0.48460
N          6.85410       -2.48380        0.33110
H          0.46970        0.44080       -0.09620
H          0.64250       -0.79110        1.21180
H          0.51970       -1.31240       -0.52240
H          2.78900        0.42450       -0.25510
H          5.00700       -0.59360        0.83660
H          4.87880       -1.10490       -0.89110
H          5.08570       -3.51090       -0.19190
H          5.20700       -2.98710        1.53600
H          7.06530       -2.27280       -0.67170
H          7.34600       -3.37280        0.57770
