12
3608	1
C          1.01340        0.11440        0.21990
N          2.38440       -0.03780       -0.20590
O          3.07140       -1.04360        0.35920
C          3.13030        1.10640       -0.64250
N          4.40510        1.07340       -0.61280
C          2.48900        2.31690       -1.06060
N          1.96690        3.29020       -1.39680
H          0.56140       -0.88590        0.37360
H          0.38200        0.67000       -0.49420
H          1.01840        0.63600        1.19700
H          3.05840       -1.78620       -0.29020
H          4.85270        0.21400       -0.28570
