17
2749	1
C          3.26650        1.80610       -1.73220
O          3.46140        1.07910       -0.53890
C          3.68030       -0.28810       -0.82860
C          5.13330       -0.54500       -1.13260
C          6.17340       -0.19390       -0.09630
N          5.44830       -1.06320       -2.27650
N          6.74450       -1.33880       -2.65530
H          3.17540        2.88120       -1.47450
H          2.31960        1.50680       -2.23300
H          4.13820        1.71140       -2.41720
H          3.01730       -0.65640       -1.64780
H          3.39940       -0.87930        0.06810
H          5.69840        0.23330        0.81210
H          6.87690        0.56110       -0.50580
H          6.73230       -1.10490        0.20420
H          6.92240       -1.75160       -3.58140
H          7.54710       -1.14390       -2.04050
