16
5270	1
C          0.94470        0.06810       -0.21070
C          2.26960        0.11760       -0.02470
C          2.99300        1.45660       -0.00740
N          4.39870        1.33130        0.43370
C          5.06240        0.20940       -0.23680
C          4.38180       -1.08410        0.12930
C          3.04570       -1.12960        0.17770
H          0.37400        0.98050       -0.35520
H          0.42040       -0.88300       -0.22040
H          2.47770        2.14370        0.69940
H          2.94560        1.91120       -1.02060
H          4.42630        1.16510        1.46810
H          6.14210        0.16520        0.02000
H          4.98190        0.35920       -1.33650
H          4.96920       -1.97370        0.33420
H          2.54120       -2.07000        0.38130
