12
6232	1
C          0.89770        0.09630       -0.05470
C          2.39010        0.06940       -0.05850
N          3.17510        1.16280       -0.06300
C          4.43560        0.66950       -0.06510
O          4.44180       -0.64790       -0.06210
C          3.19430       -1.04050       -0.05800
O          2.79050       -2.32360       -0.05400
H          0.53270        1.14490       -0.05610
H          0.51760       -0.41750        0.85280
H          0.51290       -0.42170       -0.95790
H          5.32620        1.28340       -0.06880
H          3.43770       -3.04210       -0.05400
