13
2967	1
F          1.97500        1.38990        0.54660
C          2.85940        0.52740       -0.07270
C          2.90340       -0.76750        0.68800
C          4.03690       -1.24640        1.22850
F          5.20450       -0.55630        1.09960
C          4.02250       -2.52900        1.96820
C          5.13330       -3.03000        2.51630
H          3.85230        1.02000       -0.13360
H          2.50610        0.32780       -1.10560
H          1.97710       -1.32580        0.79630
H          3.09160       -3.08040        2.07170
H          6.08360       -2.51120        2.43620
H          5.09350       -3.97230        3.05310
