17
1683	1
C          1.10370       -0.31090       -0.28190
C          2.60670       -0.49510       -0.06640
N          3.05370       -0.00480        1.25810
C          2.49630       -0.77940        2.38280
C          4.53000        0.07650        1.33890
C          5.19130       -1.23270        1.17570
N          5.71240       -2.25810        1.04810
H          0.84120       -0.61250       -1.31790
H          0.82410        0.75400       -0.13780
H          0.51320       -0.94690        0.40770
H          3.11440        0.09600       -0.86090
H          2.87170       -1.56640       -0.20920
H          1.39450       -0.67040        2.42690
H          2.87820       -0.38260        3.34820
H          2.75750       -1.85680        2.30330
H          4.83310        0.50880        2.31670
H          4.91140        0.76570        0.55550
