16
682	1
C          1.00120       -0.05640       -0.13240
N          2.46140       -0.07970       -0.04050
C          2.94640       -1.44670        0.17880
C          4.48030       -1.45950        0.23150
C          5.05700       -2.83480        0.44790
O          6.39650       -2.98500        0.51500
O          4.32880       -3.81080        0.56410
H          0.65970        0.98740       -0.29720
H          0.53960       -0.43480        0.80630
H          0.65740       -0.67110       -0.99200
H          2.74660        0.51880        0.77020
H          2.61260       -2.09980       -0.65880
H          2.54040       -1.84610        1.13630
H          4.82220       -0.80450        1.06160
H          4.87830       -1.05820       -0.72550
H          6.79660       -3.85520        0.65470
