17
4222	2
C          0.99970        0.03280       -0.19130
C          2.51100       -0.02190        0.00670
C          3.10870        1.14910        0.81340
N          4.37140        0.60790        1.22420
C          4.32630       -0.79310        1.20180
N          5.23270       -1.53240        1.73120
C          3.03440       -1.30840        0.68220
H          0.72010        0.97400       -0.70990
H          0.48250       -0.00600        0.79080
H          0.66790       -0.82860       -0.80860
H          3.01390        0.02050       -0.98880
H          2.51750        1.36990        1.72910
H          3.20930        2.05840        0.18280
H          5.08840        1.14570        1.73290
H          6.08200       -1.11600        2.14010
H          2.42550       -1.61880        1.55880
H          3.11900       -2.13100       -0.06020
