12
325	1
C          1.02010       -0.10690       -0.03360
C          2.55180       -0.04530       -0.02330
O          3.02670        0.68370       -1.12770
C          3.09390        0.53680        1.28980
F          4.47700        0.52470        1.27100
F          2.65570        1.83750        1.46920
H          0.66910       -0.56520       -0.98240
H          0.58400        0.91120        0.05270
H          0.65540       -0.72640        0.81340
H          2.93020       -1.08650       -0.11570
H          2.65610        1.60310       -1.06770
H          2.74690       -0.07880        2.14690
