14
1348	1
C          3.43470        1.19700        0.28150
O          2.97370        0.16850       -0.56720
C          3.27550       -1.09630       -0.01220
C          4.65180       -1.53080       -0.42010
N          5.53450       -1.80730        0.47430
N          6.80330       -2.20670        0.12620
H          3.25730        2.16990       -0.22100
H          4.53040        1.12100        0.46050
H          2.86560        1.21160        1.23700
H          2.54710       -1.83010       -0.41510
H          3.14730       -1.11860        1.09660
H          4.89200       -1.60790       -1.47760
H          7.48960       -2.42150        0.86290
H          7.08160       -2.29500       -0.86320
