16
5626	1
C          1.11730       -0.14850        0.34660
N          2.51360       -0.07020       -0.01840
C          3.25180        1.16070       -0.20530
C          4.70280        0.68800       -0.58740
N          4.63210       -0.75750       -0.57620
C          3.34640       -1.15980       -0.24180
N          2.97420       -2.38600       -0.15060
H          0.68950        0.86990        0.46370
H          1.01160       -0.69380        1.30790
H          0.55300       -0.68480       -0.44490
H          3.26000        1.74540        0.73970
H          2.79750        1.75460       -1.02730
H          5.44520        1.03370        0.16310
H          4.98310        1.04250       -1.60220
H          5.41860       -1.38970       -0.78520
H          3.63860       -3.15320       -0.32840
