16
4135	1
C          1.01210        0.23360       -0.11040
C          2.52400        0.41210        0.03570
O          3.22760       -0.32030       -0.96100
C          3.35350        1.08020       -1.00040
C          2.75640        1.70470       -2.26740
C          4.73790        1.56230       -0.56150
F          4.67840        2.90270       -0.22830
H          0.72790       -0.75010        0.31780
H          0.64680        0.25380       -1.15270
H          0.49700        1.02870        0.46720
H          2.97780        0.23790        1.03460
H          1.84880        1.19250       -2.63480
H          3.50490        1.65100       -3.08560
H          2.51880        2.77170       -2.07610
H          5.45890        1.42780       -1.39490
H          5.11560        0.99230        0.31460
