14
3353	1
C          0.95690       -0.01800        0.00540
C          2.47110       -0.14210       -0.17130
C          2.82750       -1.53990       -0.59170
O          3.55250       -2.22890        0.10830
C          2.95390        0.83290       -1.21860
F          2.47980        0.73910       -2.49070
C          3.83990        1.78990       -0.92220
H          0.60400       -0.72950        0.78250
H          0.42590       -0.23780       -0.94630
H          0.69500        1.01160        0.33110
H          2.94980        0.07520        0.81100
H          2.44000       -1.94440       -1.52210
H          4.23840        1.89330        0.08240
H          4.17200        2.47910       -1.69190
