16
4336	1
C          1.05470        0.21610       -0.20220
C          2.52530        0.02350        0.16460
C          2.77150       -1.30150        0.96000
N          3.30590       -0.79410        2.19280
N          3.70200       -1.57670        3.26890
C          3.37490        0.58900        2.16900
N          2.95780        1.07300        1.07360
H          0.72230       -0.60160       -0.87610
H          0.92100        1.18610       -0.72620
H          0.42210        0.21240        0.71150
H          3.15320        0.04800       -0.75280
H          3.52410       -1.94580        0.45670
H          1.83570       -1.86720        1.16120
H          4.45190       -2.22560        2.93860
H          2.87810       -2.14030        3.57910
H          3.74370        1.19580        2.98540
