15
3357	2
N          0.95100        0.11650        0.35880
C          2.34160        0.33420       -0.05080
C          2.47250        1.03790       -1.39820
C          1.43870        1.47340       -2.13270
C          3.06800        1.08990        1.04390
N          3.12910        0.57540        2.29450
O          3.60250        2.16490        0.80850
H          0.45530       -0.47810       -0.34480
H          0.45130        1.02810        0.47750
H          2.82970       -0.65900       -0.15530
H          3.47480        1.19530       -1.78710
H          0.41040        1.35560       -1.81380
H          1.62690        1.96480       -3.08170
H          2.68620       -0.32960        2.51110
H          3.62060        1.08420        3.04430
