20
2851	1
C          2.33350        1.39390        0.01030
C          2.75100       -0.07450       -0.05310
C          2.74950       -0.61600       -1.47340
C          1.42240       -0.64920       -2.20810
C          3.92220       -1.05920       -2.00170
C          4.13100       -1.63470       -3.38430
N          5.12390       -0.83790       -4.09550
H          2.36160        1.73990        1.06440
H          1.29940        1.53510       -0.36580
H          3.03200        2.01660       -0.58780
H          2.05620       -0.68210        0.56540
H          3.76080       -0.15140        0.40680
H          0.70130       -1.24960       -1.61540
H          1.43880       -1.08220       -3.21900
H          1.02290        0.37880       -2.31630
H          4.81630       -1.00260       -1.38620
H          3.22500       -1.70900       -4.00860
H          4.52110       -2.66810       -3.26310
H          4.73930        0.12050       -4.25930
H          5.29930       -1.27660       -5.02810
