20
1385	1
C          0.92350       -0.07880       -0.11460
C          2.45910       -0.07150       -0.02600
C          3.04000        0.02330       -1.45910
C          2.98380        1.02970        0.88590
C          4.40770        0.55880        1.15610
N          4.36740       -0.91250        1.16050
C          3.01540       -1.28860        0.71610
H          0.55930        0.85690       -0.59110
H          0.46780       -0.15230        0.89630
H          0.57360       -0.94570       -0.71540
H          2.71150        0.96770       -1.94440
H          2.67700       -0.82860       -2.07350
H          4.14730       -0.01170       -1.48690
H          2.43270        0.97290        1.85420
H          2.89860        2.06920        0.50250
H          4.83290        0.99340        2.08700
H          5.06510        0.87070        0.31870
H          4.52780       -1.28100        2.12720
H          2.39470       -1.46750        1.62690
H          3.00720       -2.22390        0.11680
