14
6006	1
C          1.11700       -0.05410       -0.03240
C          2.61050       -0.00610       -0.00070
C          3.39140        1.13070       -0.09050
C          4.70910        0.70770       -0.01660
C          4.67990       -0.66890        0.11530
N          3.40250       -1.08560        0.12190
O          2.99030       -2.37120        0.23870
H          0.69530        0.96760       -0.14040
H          0.73990       -0.50150        0.91060
H          0.78380       -0.67380       -0.89080
H          3.04600        2.15070       -0.19680
H          5.59060        1.33350       -0.05400
H          5.53830       -1.32230        0.20080
H          2.93360       -2.70820       -0.69220
