13
1861	2
C          0.79910       -0.62260        0.67200
N          2.23810       -0.46510        0.46830
N          2.81800        0.79730        0.42150
C          2.10170        1.94610        0.55920
O          2.66870        3.02610        0.50890
C          3.04320       -1.55910        0.31960
O          2.58840       -2.69300        0.35200
H          0.24660       -0.12240       -0.15120
H          0.50670       -0.17540        1.64540
H          0.47520       -1.68420        0.68760
H          3.83750        0.87790        0.27630
H          1.02990        1.93060        0.71400
H          4.11080       -1.43040        0.16880
