15
969	1
N          1.03270       -0.02360        0.01290
C          2.48810       -0.06870       -0.10190
C          3.06750       -1.32880        0.56080
C          3.25880       -0.97960        2.04160
C          3.51540        0.48070        1.95380
C          3.08420        0.99160        0.75620
H          0.62750       -0.81660       -0.53550
H          0.68710        0.86430       -0.41920
H          2.80100       -0.02220       -1.16910
H          4.10240       -1.41780        0.15190
H          2.55770       -2.29080        0.34110
H          4.09940       -1.56820        2.46760
H          2.33200       -1.12430        2.63690
H          3.88260        1.09490        2.76530
H          3.07810        2.04920        0.52800
