12
754	1
C          1.29760       -0.34860        0.00880
C          2.62060       -0.16120        0.07550
C          3.24580        1.15320       -0.20320
O          2.55240        2.11480       -0.50630
C          4.71830        1.29260       -0.11150
C          5.33980        2.45290       -0.35130
H          0.87950       -1.32740        0.22040
H          0.62560        0.46250       -0.25440
H          3.25490       -1.00150        0.34280
H          5.31490        0.42620        0.15900
H          4.78380        3.34450       -0.62470
H          6.42050        2.51290       -0.27330
