12
4372	1
C          0.99790       -0.09090       -0.06690
N          2.45330       -0.07460       -0.06240
N          3.20050        1.02060       -0.05940
N          4.48120        0.66850       -0.05560
C          4.47720       -0.67930       -0.05640
N          5.52660       -1.41280       -0.05360
N          3.22240       -1.14780       -0.06060
H          2.89550       -2.14020       -0.06220
H          0.60200        0.94670       -0.06750
H          0.62880       -0.61870        0.83710
H          0.63450       -0.61760       -0.97390
H          6.46560       -0.98820       -0.05040
