17
322	1
C          0.91930       -0.09620        0.07850
C          2.44580       -0.03280       -0.01450
O          2.88120       -0.02210       -1.35330
C          3.17440        1.03560        0.81600
C          4.27480        0.00160        1.08510
O          5.23860        0.07110        0.06530
C          3.23290       -1.08560        0.77330
H          0.47420        0.79760       -0.40690
H          0.59090       -0.12460        1.13910
H          0.54960       -1.00890       -0.43460
H          2.65420        0.87080       -1.72370
H          2.61850        1.19240        1.77090
H          3.44320        2.00720        0.34880
H          4.75810        0.02030        2.08690
H          5.77500       -0.76090        0.13550
H          2.69190       -1.31160        1.72290
H          3.55210       -2.02040        0.26430
