10
2383	3
O          0.94040        0.12290        0.55790
C          2.14360        0.06600        0.33630
N          3.07790        0.30370        1.29980
C          4.42530        0.24660        1.07270
O          4.95600       -0.01920        0.00390
C          5.24880        0.53260        2.22640
C          5.93320        0.77030        3.18500
H          2.55800       -0.18070       -0.65520
H          2.72730        0.53170        2.21740
H          6.55280        0.97900        4.02670
