17
681	2
C          1.01240        0.09400        0.24120
N          2.46090       -0.11170        0.26470
C          3.13380        0.82650       -0.64000
C          4.65450        0.63690       -0.55840
C          5.42170        1.57830       -1.45730
N          6.77320        1.52700       -1.48640
O          4.83260        2.38760       -2.16000
H          0.52730       -0.62840        0.93110
H          0.60620       -0.06680       -0.78170
H          0.76160        1.12030        0.58600
H          2.65720       -1.09090       -0.05040
H          2.88900        1.87150       -0.34390
H          2.79460        0.65580       -1.68730
H          4.90670       -0.40670       -0.84650
H          4.98120        0.80530        0.49060
H          7.28340        0.85050       -0.89970
H          7.30680        2.16450       -2.09590
