15
256	3
C          1.55370       -0.52760        0.98590
C          2.99970       -0.15200        0.80280
N          3.77260       -0.11790        1.83020
N          3.48560        0.16000       -0.51290
C          4.76800        0.51670       -0.83660
C          5.87500        0.63290        0.17810
O          5.03510        0.75420       -2.00560
H          1.48470       -1.54840        1.41720
H          1.00730       -0.51620        0.01990
H          1.06510        0.19300        1.67510
H          3.42230       -0.34200        2.77360
H          2.80440        0.11050       -1.28630
H          6.04810       -0.34640        0.67130
H          5.62550        1.40900        0.93140
H          6.82360        0.93450       -0.31610
