14
4346	2
C          0.93830       -0.05330       -0.07740
C          2.45000       -0.08980        0.12870
N          2.84520       -1.26670        0.88100
C          3.43870       -0.92390        2.03330
O          3.86200       -1.73340        2.84270
C          3.50310        0.50350        2.16950
C          2.91710        1.02780        1.03880
H          0.62270       -0.91940       -0.69660
H          0.65010        0.88260       -0.60150
H          0.40910       -0.09850        0.89900
H          2.97750       -0.05300       -0.84870
H          2.69390       -2.23860        0.57210
H          3.92520        1.07000        2.98880
H          2.81250        2.08640        0.84050
