17
1016	1
C          3.81420       -1.87190       -1.56600
O          5.03300       -1.53960       -1.01100
C          5.59960       -0.31050       -1.12110
N          5.00490        0.63670       -1.77160
N          5.52250        1.91270       -1.92480
C          4.76050        2.88610       -2.67550
C          6.80360        2.30070       -1.35550
H          3.58370       -2.93090       -1.32970
H          3.84970       -1.75240       -2.67010
H          3.01200       -1.22940       -1.14350
H          6.56140       -0.14940       -0.64880
H          3.81080        2.44200       -3.04390
H          5.35120        3.23320       -3.54960
H          4.51700        3.75440       -2.02730
H          6.77550        2.19080       -0.25100
H          7.04080        3.36140       -1.58870
H          7.61240        1.66800       -1.77810
