17
3919	1
N          3.25880       -0.32130        1.03230
C          2.40230        0.11560       -0.06740
C          2.99650       -0.21520       -1.44750
F          2.12070        0.19090       -2.44740
C          4.41260        0.24600       -1.81140
C          4.54350       -1.05020       -2.61780
C          3.44810       -1.65040       -1.73040
H          2.74360       -0.16900        1.92930
H          4.11080        0.28210        1.07080
H          2.22310        1.21080        0.00860
H          1.42290       -0.40400        0.01510
H          5.09210        0.15780       -0.93480
H          4.54450        1.21710       -2.33390
H          5.53130       -1.55500       -2.66780
H          4.12110       -0.87950       -3.63610
H          3.93720       -2.07630       -0.82360
H          2.72500       -2.36380       -2.17920
