18
1292	1
C          0.94580       -0.03830       -0.01030
C          2.47670        0.01480       -0.08740
N          2.95390        0.12250       -1.47320
C          3.17900        1.05710        0.79240
C          4.28250        0.02180        1.02960
C          3.25140       -1.06430        0.68930
O          3.73240       -2.12890       -0.08520
H          0.51150        0.87930       -0.46010
H          0.60890       -0.10850        1.04580
H          0.56960       -0.92600       -0.56120
H          2.57460        0.99670       -1.90490
H          2.60560       -0.69300       -2.02820
H          2.61520        1.17350        1.74830
H          3.45080        2.04420        0.36140
H          4.78210       -0.00810        2.02060
H          5.02330        0.10230        0.19890
H          2.69220       -1.37930        1.60280
H          4.44500       -2.55800        0.45490
