18
2859	1
C          0.96940       -0.19220       -0.09780
C          2.46640       -0.13000        0.08780
C          3.04300       -0.89870        1.26330
O          2.48880       -0.43280        2.46280
C          3.20660        0.59230       -0.79330
C          4.70660        0.77480       -0.77120
N          5.27270        0.28350       -2.02200
H          0.65760       -1.24850       -0.23710
H          0.62250        0.38820       -0.97950
H          0.46320        0.21690        0.80140
H          4.14310       -0.89960        1.35460
H          2.76660       -1.96730        1.14490
H          2.90880        0.44870        2.64330
H          2.68900        1.10060       -1.60300
H          5.22810        0.29020        0.07150
H          4.91130        1.86340       -0.68700
H          5.13750       -0.75280       -2.07280
H          6.30150        0.47160       -2.02050
