13
600	1
C          0.84590        0.14180       -0.23330
N          2.26310       -0.08640        0.00770
C          2.76080        0.13140        1.34210
N          3.99390       -0.03740        1.67710
C          3.11640       -0.51610       -1.07320
N          2.66530       -0.70930       -2.26490
H          0.31340        0.46820        0.68570
H          0.36490       -0.79670       -0.58220
H          0.71470        0.93870       -0.99590
H          2.07060        0.45490        2.11530
H          4.73490       -0.33940        1.03680
H          4.16890       -0.69050       -0.91510
H          1.67960       -0.57250       -2.52470
