12
948	1
C          1.03610        0.01440        0.15410
C          2.34440       -0.04430       -0.10050
C          3.16000       -1.30890       -0.08410
C          4.47920       -0.70120       -0.43600
C          4.34030        0.65560       -0.60170
O          3.07800        1.04300       -0.40320
H          0.48250       -0.88790        0.39410
H          0.51550        0.96610        0.12300
H          2.82270       -2.03140       -0.85690
H          3.18040       -1.77750        0.92240
H          5.41110       -1.23940       -0.54660
H          5.14510        1.33070       -0.85980
