17
139	1
C          2.94130       -1.26500        0.25050
C          2.54790       -0.03530       -0.52020
O          1.63620       -0.11330       -1.33190
C          3.28970        1.28600       -0.31850
C          2.73990        2.39490       -1.24240
C          3.13920        1.75230        1.13860
O          4.66010        1.10320       -0.58040
H          2.31070       -2.12990       -0.04720
H          2.80820       -1.10250        1.33900
H          4.00270       -1.51430        0.04280
H          1.66390        2.58320       -1.03630
H          2.84870        2.10310       -2.30920
H          3.29950        3.34250       -1.08710
H          2.06770        1.89930        1.39530
H          3.67510        2.71360        1.29390
H          3.57670        1.01410        1.84240
H          4.75170        0.78620       -1.51780
