11
6245	1
N          1.10910        0.07740        0.09290
C          2.51900       -0.01600        0.09030
N          3.35280        1.03710        0.08300
N          4.58540        0.54000        0.08280
O          4.53610       -0.76490        0.08960
C          3.28600       -1.15160        0.09450
N          2.85280       -2.49610        0.10240
H          0.65450        1.00160        0.08920
H          0.52610       -0.77110        0.09860
H          3.54510       -3.25840        0.10480
H          1.84920       -2.72530        0.10580
