17
399	1
C          0.95600       -0.05270        0.00170
C          2.49010       -0.05430       -0.01050
N          3.02900       -0.08190       -1.37570
C          3.19490        1.02560        0.81970
C          4.24030       -0.03220        1.18600
C          3.19300       -1.10170        0.86190
H          0.57270        0.84140       -0.53400
H          0.57270       -0.03130        1.04380
H          0.57120       -0.96720       -0.49720
H          2.69020        0.75670       -1.90160
H          2.68790       -0.93950       -1.86830
H          2.59330        1.23840        1.73480
H          3.52900        1.96280        0.32550
H          4.68940       -0.01250        2.20100
H          5.02220       -0.04860        0.39170
H          2.59100       -1.27700        1.78460
H          3.52540       -2.05830        0.40520
