17
215	1
C          0.95380        0.39510       -0.11500
C          2.44040        0.59440       -0.13600
C          3.21720       -0.01840       -1.04320
C          4.71300        0.18040       -1.06510
C          5.42010       -1.15990       -0.83730
N          5.10700        0.76410       -2.34760
H          0.65600       -0.02770        0.86690
H          0.61350       -0.29530       -0.91650
H          0.45180        1.37480       -0.25420
H          2.88320        1.25220        0.60650
H          2.76910       -0.67590       -1.78400
H          5.02240        0.87610       -0.25270
H          5.15180       -1.88710       -1.63380
H          5.12720       -1.58280        0.14760
H          6.52130       -1.01570       -0.84210
H          4.87910        0.10740       -3.13020
H          6.13870        0.93720       -2.35130
