15
4589	1
C          0.99230        0.04200       -0.11900
C          2.48720       -0.01480       -0.16690
C          3.20230       -1.11320       -0.04430
C          4.58080       -0.71000       -0.15030
C          5.64050       -1.51840       -0.07980
C          4.61520        0.77280       -0.35290
O          3.26080        1.08240       -0.34460
H          0.55690       -0.96870        0.03450
H          0.60900        0.45650       -1.07430
H          0.67560        0.69970        0.71680
H          2.81980       -2.11510        0.10600
H          5.50900       -2.58550        0.07000
H          6.64350       -1.11420       -0.17200
H          5.07230        1.03710       -1.33000
H          5.13970        1.28320        0.48240
