13
5696	1
F          1.02900        0.04950       -0.35290
C          2.39670        0.04570       -0.10980
C          2.97400       -1.17600       -0.83790
C          3.11240       -0.64080       -2.21640
C          3.11610        0.73000       -2.21610
C          2.98040        1.26480       -0.83740
F          4.24110        1.57950       -0.36150
H          2.52760        0.04390        0.99290
H          2.28590       -2.04330       -0.74510
H          3.99190       -1.44130       -0.47980
H          3.30920       -1.23720       -3.09740
H          3.31600        1.32580       -3.09670
H          2.30100        2.13850       -0.74150
