14
566	1
N          2.84170        0.43270       -1.25190
C          2.47880       -0.06550        0.07310
C          3.03790        0.84100        1.18780
N          2.56560        0.39650        2.49960
C          4.48190        0.84100        1.18780
C          5.67200        0.84100        1.18780
H          2.40310       -0.18720       -1.96970
H          3.87590        0.37350       -1.38220
H          2.84280       -1.10990        0.20030
H          1.36980       -0.07610        0.14680
H          2.68550        1.88220        1.02070
H          2.85150       -0.59570        2.67300
H          1.52160        0.44990        2.53390
H          6.73020        0.84090        1.18770
