18
3134	1
C          2.47460       -0.72710       -0.52880
O          3.37380       -0.76680        0.55700
C          3.49880        0.51220        1.15910
C          2.61600        0.58130        2.41150
C          4.98600        0.78710        1.46510
C          5.62900       -0.24830        2.39260
F          5.68880        0.80390        0.27200
H          2.34460       -1.75940       -0.91330
H          2.88460       -0.11290       -1.36040
H          1.47000       -0.36860       -0.21310
H          3.17870        1.34260        0.48170
H          2.87730       -0.21830        3.13430
H          1.55070        0.44820        2.12880
H          2.72440        1.57080        2.90430
H          5.08220        1.79090        1.93370
H          5.56930       -1.26360        1.94680
H          5.14060       -0.25470        3.38790
H          6.69920        0.00670        2.54340
