11
6069	1
N          0.93100       -0.00310        0.30240
N          2.32990        0.01900        0.18350
N          3.06390        1.11240        0.09610
C          4.34570        0.69560       -0.00170
N          4.43090       -0.65710        0.02460
C          3.14580       -1.04030        0.14170
O          2.73500       -2.32040        0.20630
H          0.57670        0.97950        0.29370
H          0.54620       -0.49990       -0.53200
H          5.19610        1.35780       -0.09160
H          3.37230       -3.04660        0.16380
