11
1078	1
F          0.94770        0.10230        0.06700
C          2.30040       -0.01930        0.07010
C          3.12980        1.01590        0.07450
C          4.42460        0.56850        0.07660
C          4.42800       -0.80570        0.07350
C          3.02970       -1.33160        0.06890
H          2.82200        2.05320        0.07610
H          5.31060        1.18930        0.08020
H          5.32400       -1.41220        0.07430
H          2.81140       -1.92330        0.98240
H          2.81590       -1.91920       -0.84840
