16
473	1
C          1.15270       -0.00860        0.40220
C          2.65890        0.16100        0.20160
C          3.03730        0.59350       -1.23480
N          2.49660        1.91320       -1.57380
C          4.56190        0.61010       -1.40640
F          5.14700        1.52450       -0.54720
H          0.95690       -0.36350        1.43620
H          0.75290       -0.76070       -0.31090
H          0.61610        0.95210        0.26550
H          3.13390       -0.82190        0.41410
H          3.04400        0.89890        0.93900
H          2.63400       -0.15580       -1.95290
H          2.79550        2.62380       -0.86700
H          1.45370        1.88400       -1.61630
H          4.81840        0.88460       -2.45160
H          4.98160       -0.39800       -1.20050
