14
6000	1
C          1.00250       -0.03890       -0.07810
N          2.46130       -0.05350       -0.07310
C          3.27280        1.02230       -0.06840
C          4.59360        0.60710       -0.06470
C          4.57810       -0.77640       -0.06720
C          3.24840       -1.14410       -0.07240
O          2.78240       -2.40820       -0.07620
H          0.62130        1.00470       -0.07760
H          0.62050       -0.55950        0.82510
H          0.62670       -0.55630       -0.98570
H          2.93080        2.04940       -0.06780
H          5.46920        1.24220       -0.06050
H          5.43660       -1.43480       -0.06540
H          3.38830       -3.16240       -0.07550
