19
1346	1
C          0.75760        0.08540       -0.28020
C          2.27300        0.11730       -0.07240
N          2.76860        0.26860        1.29240
C          3.08390       -0.89200       -0.88340
C          3.16150        0.61870       -1.19100
C          4.46050        1.33850       -0.79550
N          4.18080        2.74340       -0.52130
H          0.31710       -0.74010        0.31720
H          0.49520       -0.06840       -1.34910
H          0.32140        1.04910        0.05700
H          2.35640       -0.48780        1.88480
H          2.44610        1.19180        1.66140
H          2.62420       -1.37400       -1.77210
H          4.05510       -1.23620       -0.46720
H          2.59210        0.95120       -2.08590
H          5.18240        1.25850       -1.63750
H          4.93640        0.88070        0.09880
H          3.81590        3.19640       -1.39100
H          5.07690        3.21780       -0.26630
