17
1994	2
C          0.61250       -0.33820        0.49290
N          2.04140       -0.25070        0.28540
C          2.86690        0.70450        0.96850
N          2.36260        1.54020        1.81090
C          4.35470        0.75830        0.71950
O          4.75000       -0.21530       -0.22360
C          6.14240       -0.13250       -0.42530
H          0.18820       -1.14650       -0.13980
H          0.12760        0.62000        0.21050
H          0.39620       -0.57450        1.55620
H          2.46910       -0.90750       -0.38290
H          1.35930        1.56950        2.03710
H          4.86070        0.57960        1.69590
H          4.59100        1.78010        0.34340
H          6.43320       -0.90270       -1.16890
H          6.70150       -0.35620        0.51030
H          6.43280        0.85460       -0.84910
