18
445	1
C          3.10990        0.39490        1.39670
C          2.58860       -0.02460        0.02000
C          3.16420        0.83350       -1.12760
C          2.55500        0.39160       -2.46280
F          2.81110        2.15940       -0.91540
C          4.67120        0.67260       -1.20480
C          5.51680        1.70040       -1.06450
H          2.64800       -0.24520        2.17770
H          2.84580        1.45300        1.60600
H          4.21200        0.27550        1.45560
H          1.48100        0.07570        0.02930
H          2.83750       -1.09620       -0.14620
H          1.45030        0.50800       -2.44010
H          2.79510       -0.67300       -2.67510
H          2.95220        1.01760       -3.29080
H          5.08090       -0.31850       -1.38030
H          5.15950        2.70920       -0.88680
H          6.58660        1.53010       -1.12780
