19
584	1
C          4.63660       -0.36190       -0.24080
O          3.72660       -0.07020       -1.27760
C          3.88010        1.27490       -1.68660
O          5.06130        1.44540       -2.44760
C          4.91020        0.92720       -3.75880
C          4.59690        2.06870       -4.72900
C          6.20950        0.22730       -4.15440
H          4.52340       -1.43140        0.03090
H          4.41150        0.23230        0.67230
H          5.69010       -0.22270       -0.57020
H          3.89570        1.97240       -0.81830
H          2.97780        1.59180       -2.25650
H          4.10210        0.15910       -3.83350
H          5.40530        2.83070       -4.70600
H          3.64080        2.55700       -4.44660
H          4.49740        1.67830       -5.76440
H          7.06140        0.93990       -4.12130
H          6.12750       -0.19090       -5.18050
H          6.41550       -0.60630       -3.44960
