14
274	1
C          0.94890        0.07820       -0.06170
C          2.41170        0.07780       -0.06030
C          3.61730        0.07760       -0.05940
C          5.06140        0.07770       -0.05990
C          5.80790        0.40610       -1.32080
C          5.72780       -0.21470        1.06300
H          0.57800        0.34830        0.94840
H          0.57890       -0.93180       -0.33360
H          0.57990        0.81850       -0.80110
H          5.10520        0.62310       -2.15380
H          6.44790       -0.45280       -1.61430
H          6.44790        1.29910       -1.15810
H          5.19460       -0.45330        1.97920
H          6.81390       -0.21790        1.07540
