16
1672	1
C          0.82560       -0.09920       -1.09560
C          2.20430        0.19200       -0.50000
C          2.68800        1.58300       -0.94600
F          2.78740        1.63920       -2.32520
O          2.10320        0.12580        0.88210
C          3.12790        0.13180        1.78350
C          4.42060        0.03660        1.43820
H          0.86730       -0.08500       -2.20550
H          0.08430        0.65410       -0.75180
H          0.48270       -1.10580       -0.77440
H          2.89920       -0.59470       -0.86780
H          3.68420        1.81610       -0.52100
H          1.97760        2.36480       -0.60140
H          2.88130        0.20200        2.83780
H          4.73670       -0.05230        0.40600
H          5.18280        0.04050        2.21060
