14
793	2
C          1.08860       -0.13970       -0.12590
N          2.51220       -0.06320        0.12100
C          3.04030        0.47680        1.17230
C          2.17810        1.08940        2.25690
N          4.45870        0.48570        1.29510
O          5.05970        1.01890        2.36890
H          0.91700       -0.65030       -1.09560
H          0.65040        0.87920       -0.18270
H          0.58860       -0.72660        0.67350
H          1.56850        1.91510        1.83410
H          2.78490        1.50750        3.08500
H          1.50550        0.31800        2.68630
H          5.03730        0.06010        0.55520
H          5.28590        1.94590        2.10000
