15
5166	2
C          1.03360        0.05490        0.36630
C          2.31580        0.03740       -0.01980
C          3.04000        1.29740       -0.41270
C          4.41930        1.23370        0.23970
N          5.09630       -0.00250       -0.13360
C          4.46410       -1.13030       -0.22520
N          3.04860       -1.18070       -0.06460
H          0.47760        0.98680        0.40230
H          0.53130       -0.86490        0.64920
H          2.48170        2.22120       -0.14640
H          3.19630        1.28220       -1.51330
H          4.29480        1.25700        1.34490
H          5.04060        2.10470       -0.05680
H          5.01760       -2.04180       -0.42330
H          2.57320       -2.09090        0.02770
