18
1227	1
C          0.98430       -0.27150        0.44830
C          2.50440       -0.20190        0.56180
C          3.17730       -0.62180       -0.75020
C          4.70270       -0.55150       -0.63250
C          5.34500       -0.94680       -1.93520
C          6.18110       -1.98600       -2.01920
H          0.52450        0.03730        1.41070
H          0.66150       -1.30890        0.21660
H          0.62520        0.41000       -0.35220
H          2.83360       -0.87510        1.38320
H          2.79770        0.84030        0.81540
H          2.83960        0.05350       -1.56760
H          2.87780       -1.66400       -1.00000
H          5.03750       -1.21770        0.19360
H          5.01250        0.48790       -0.39030
H          5.12360       -0.37090       -2.82920
H          6.42370       -2.58190       -1.14460
H          6.62840       -2.24490       -2.97330
