14
1563	1
F          3.27270        0.15170       -0.99170
C          2.36550       -0.08980        0.02310
C          2.88780       -1.21140        0.92750
C          1.92720       -1.69850        1.99650
C          2.37990       -3.07220        1.53280
N          2.97780       -2.53750        0.30320
H          1.38610       -0.36250       -0.42480
H          2.23700        0.83680        0.62090
H          3.88060       -0.96550        1.37380
H          0.87780       -1.55230        1.65570
H          2.12720       -1.40990        3.05020
H          1.56660       -3.81710        1.38250
H          3.20220       -3.45700        2.18020
H          2.24560       -2.61360       -0.44370
