13
3681	4
N          1.24490        0.59510        0.49970
N          2.54890        0.95780        0.23710
C          3.01700        1.26440       -0.93460
N          2.20210        1.25940       -2.10950
C          4.45510        1.63500       -1.05570
N          5.26650        1.65410        0.03070
O          4.91410        1.92710       -2.15000
H          0.97370        0.37260        1.46760
H          0.52450        0.53000       -0.22760
H          1.20580        1.01750       -2.10110
H          2.61350        1.50910       -3.02010
H          4.91170        1.41340        0.96730
H          6.25950        1.91260       -0.06910
