9
719	2
O          2.92510        1.16870        0.14460
N          2.29940       -0.00510       -0.02890
C          3.04120       -1.20490        0.09980
N          2.45800       -2.29890        0.41010
C          4.45820       -1.18850       -0.04710
N          5.60510       -1.16580       -0.16780
H          3.36440        1.40120       -0.70890
H          1.29340       -0.04210        0.18240
H          1.44100       -2.31240        0.53300
