12
4448	1
N          0.90440       -0.05610       -0.01050
C          2.31660       -0.07280       -0.00590
C          3.14340        1.03490       -0.00140
N          4.42070        0.60510        0.00220
H          5.28340        1.19350        0.00600
C          4.34320       -0.75130       -0.00030
O          5.31450       -1.48650        0.00180
N          3.06090       -1.19330       -0.00520
H          2.72490       -2.18220       -0.00790
H          0.39540        0.83950       -0.01080
H          0.37600       -0.94030       -0.01370
H          2.84150        2.07410       -0.00080
