15
427	1
C          0.99790        0.01600       -0.05300
C          2.52310       -0.09430        0.05430
C          3.27920       -0.74520       -1.11800
C          3.35100        0.76260       -0.88310
C          2.76500        1.60370       -2.02030
F          4.59270        1.13780       -0.40000
H          0.54330       -0.82990        0.50260
H          0.61750       -0.03050       -1.09260
H          0.66420        0.96520        0.41550
H          2.99760       -0.09600        1.05960
H          2.53070       -1.14460       -1.83540
H          4.03190       -1.41250       -0.64730
H          1.84320        1.17430       -2.45870
H          3.51670        1.68560       -2.83280
H          2.54160        2.62210       -1.64080
