12
5111	1
O          1.44160        0.04970        0.85020
C          2.34340        0.00760        0.02860
N          2.96850       -1.17030       -0.25270
O          3.91940       -1.24550       -1.21880
C          4.73790       -0.09840       -1.12160
C          3.88280        1.15180       -1.39190
O          2.74490        1.13930       -0.60140
H          2.68170       -2.03140        0.23610
H          5.56880       -0.15610       -1.85560
H          5.19250       -0.05050       -0.10530
H          3.56620        1.17990       -2.45630
H          4.48870        2.05670       -1.17570
