12
4394	1
C          1.15140       -0.09150       -0.20380
C          2.45810       -0.06010        0.06160
N          3.26260       -1.18520        0.29650
C          4.53870       -0.64930        0.52410
N          5.58530       -1.34520        0.78180
N          4.52760        0.76280        0.43360
C          3.32140        1.12710        0.16400
H          0.62540       -1.03950       -0.25210
H          0.60490        0.83070       -0.37320
H          2.98170       -2.17680        0.30100
H          5.53300       -2.37280        0.83530
H          3.02160        2.15900        0.03820
