17
1658	2
C          1.11580       -0.49630        0.20800
C          2.41780        0.08150       -0.36680
C          2.83480       -0.77320       -1.58590
O          4.05650       -0.36360       -2.13630
N          2.20840        1.47790       -0.73830
C          3.25720        2.40610       -1.02950
N          4.50050        2.13340       -0.83690
H          1.26610       -1.55040        0.52590
H          0.30040       -0.46250       -0.54670
H          0.80150        0.09120        1.09710
H          3.17330        0.01530        0.44560
H          2.03230       -0.75730       -2.36130
H          2.94730       -1.83400       -1.27480
H          3.84700        0.24570       -2.89170
H          1.24510        1.84690       -0.75580
H          2.99190        3.39910       -1.37680
H          4.82660        1.23120       -0.46870
