17
3966	1
C          1.01470       -0.16900        0.16950
C          2.52040       -0.02760       -0.09790
C          2.84060        0.02730       -1.60580
O          4.22670        0.05110       -1.83420
C          3.17000        1.07300        0.72520
C          3.91150       -0.09490        1.34680
O          3.24540       -1.04580        0.54560
H          0.47160        0.71430       -0.22880
H          0.81390       -0.25040        1.25960
H          0.62450       -1.08420       -0.32420
H          2.34050        0.90990       -2.06980
H          2.42790       -0.87410       -2.10690
H          4.47540        0.98820       -2.04670
H          2.49190        1.55060        1.46650
H          3.86030        1.73890        0.16430
H          3.65930       -0.24170        2.42030
H          4.99890       -0.08630        1.11110
