13
5198	1
N          0.85250        0.00950       -0.05690
C          2.13770        0.03470       -0.06250
N          2.83790        1.26700       -0.07380
C          4.28600        1.30620       -0.08010
C          4.93090       -0.06430       -0.07350
N          4.24800       -1.16100       -0.06320
N          2.87100       -1.17490       -0.05740
H          0.30100        0.88010       -0.06050
H          2.31500        2.15580       -0.07760
H          4.63270        1.86100        0.81690
H          4.62510        1.84870       -0.98750
H          6.01420       -0.12240       -0.07760
H          2.37460       -2.07800       -0.04920
