15
4650	1
C          0.89300        0.03040        0.08680
C          2.38510       -0.00210        0.05550
C          3.23940        1.08640        0.12340
C          4.52340        0.57730        0.06830
N          4.46490       -0.76610       -0.02870
N          5.55860       -1.64580       -0.10380
C          3.17170       -1.13250       -0.04140
H          0.52710        1.07530        0.17130
H          0.52960       -0.55010        0.96080
H          0.49030       -0.41990       -0.84410
H          2.96090        2.12880        0.20640
H          5.43920        1.15340        0.09960
H          6.44830       -1.09770       -0.04890
H          5.51390       -2.28580        0.72200
H          2.82290       -2.15500       -0.11190
