14
34	1
C          0.81740       -0.07970        0.08060
C          2.33950        0.09050        0.03060
N          3.01390       -1.18280        0.28520
C          2.75210        0.61530       -1.32260
C          3.37580        1.78950       -1.46080
H          0.50820       -0.45520        1.07910
H          0.47580       -0.80010       -0.69370
H          0.31930        0.89800       -0.09470
H          2.63300        0.80930        0.82860
H          2.71470       -1.89890       -0.41730
H          2.75960       -1.52910        1.23910
H          2.53570        0.02410       -2.20820
H          3.60670        2.40620       -0.59760
H          3.65840        2.13910       -2.44840
