13
73	1
C          1.23480        0.41840       -0.29100
N          2.69630        0.35660       -0.33170
C          3.14580       -0.64060       -1.30960
C          4.67100       -0.67090       -1.38060
F          5.20250       -1.02990       -0.15470
F          5.07220       -1.59220       -2.33070
H          0.91960        1.18430        0.44860
H          0.80620       -0.56240        0.01220
H          0.83090        0.71160       -1.28390
H          3.03520        0.08430        0.62090
H          2.75700       -0.37740       -2.31860
H          2.77210       -1.65230       -1.03260
H          5.05670        0.33080       -1.66640
