17
4837	1
C          1.13300       -0.09770        0.06150
C          2.65050        0.01930        0.08780
C          3.48570       -0.60200       -1.02260
C          4.52410       -0.42900        0.07640
C          4.51620        1.08450        0.18800
O          3.12790        1.34390        0.19100
C          3.46100       -0.75960        1.11390
H          0.72910        0.45990       -0.80930
H          0.70820        0.32670        0.99520
H          0.83440       -1.16400       -0.02060
H          3.59820       -0.02910       -1.97150
H          3.24430       -1.67580       -1.21010
H          5.51730       -0.92510        0.05130
H          5.01040        1.56140       -0.68790
H          4.98930        1.42690        1.13540
H          3.55060       -0.33230        2.13890
H          3.21710       -1.84900        1.13620
