17
2232	1
O          1.05870       -1.48640        1.22410
C          2.45490       -1.53490        1.31950
C          3.01740       -0.11430        1.20290
C          4.53550       -0.09890        1.28010
C          5.24550        0.23900        0.19090
C          5.27380       -0.43700        2.53450
C          4.67470       -0.65800        3.71130
H          0.74770       -2.42880        1.24020
H          2.86510       -2.14740        0.48470
H          2.73960       -1.99950        2.28570
H          2.59850        0.54660        1.99150
H          2.67380        0.28690        0.22320
H          4.75260        0.49540       -0.74200
H          6.33110        0.26250        0.21870
H          6.35920       -0.48720        2.50240
H          3.60000       -0.60060        3.83070
H          5.27680       -0.88900        4.58410
