10
1324	1
O          2.88540        1.76380        0.85580
C          2.27810        0.70770        0.93840
O          2.80280       -0.53720        0.99880
C          4.23290       -0.61560        0.96600
C          4.71410       -1.26690        2.16160
C          5.11110       -1.80310        3.14720
H          1.18030        0.63230        0.96590
H          4.71200        0.36280        0.85170
H          4.50160       -1.20250        0.08110
H          5.46350       -2.28330        4.03100
