13
190	1
N          3.78270        1.52820        0.26070
C          2.95050        0.37710        0.38860
N          1.70450        0.52870        0.66950
N          3.45860       -0.94900        0.21380
C          4.81790       -1.24940       -0.09970
C          5.21390       -2.51690       -0.24670
H          3.38290        2.46880        0.39330
H          4.78190        1.46300        0.03850
H          1.29390        1.46440        0.80420
H          2.79660       -1.73370        0.32230
H          5.55610       -0.47040       -0.22560
H          4.51200       -3.33700       -0.13080
H          6.24930       -2.73800       -0.48530
