17
1650	1
C          1.10910       -0.44730       -0.05390
N          2.55350       -0.65780        0.08400
C          2.98850       -0.86660        1.48090
C          2.39560       -2.16700        2.06290
C          4.53260       -0.91530        1.50970
C          5.06830       -1.06070        2.87100
N          5.48790       -1.17870        3.94310
H          0.87840       -0.18120       -1.10740
H          0.76080        0.37920        0.60290
H          0.54900       -1.37810        0.16620
H          3.01630        0.20940       -0.27860
H          2.65700       -0.00720        2.10870
H          2.69500       -3.04040        1.44570
H          1.28970       -2.11940        2.11320
H          2.74350       -2.32730        3.10470
H          4.94160        0.02870        1.09020
H          4.89810       -1.75970        0.88680
