18
4887	1
C          2.42230       -1.01860       -0.72110
O          2.00750        0.08790        0.04470
C          2.75450        0.11900        1.24090
C          2.31210        1.22680        2.18560
N          2.16580        0.29930        3.31810
C          3.35240        0.34120        4.18950
C          2.26270       -0.80360        2.35000
H          1.84070       -1.02630       -1.66540
H          2.20790       -1.97730       -0.19910
H          3.49610       -0.93770       -1.00140
H          3.86530        0.14190        1.14860
H          1.29530        1.60020        1.92260
H          3.04060        2.05950        2.31650
H          3.35200        1.28870        4.76890
H          4.30660        0.27240        3.61870
H          3.30930       -0.50000        4.91330
H          1.22980       -1.16740        2.14270
H          2.95740       -1.63390        2.61170
