15
3657	1
C          1.11800       -0.24200       -0.11790
C          2.63310       -0.04190       -0.15720
C          3.18890        0.56430        1.11190
O          2.44460        0.84400        2.04150
C          4.64300        0.82330        1.23560
C          5.20660        1.42450        2.48950
O          5.39280        0.54650        0.31120
H          0.77680       -0.68840       -1.07570
H          0.60330        0.73260        0.02230
H          0.84040       -0.92740        0.71130
H          2.88030        0.62510       -1.01090
H          3.11650       -1.02850       -0.32450
H          4.98640        0.76310        3.35350
H          4.74980        2.42100        2.66490
H          6.30780        1.54710        2.40620
