12
1489	1
O          1.58990       -0.85820        1.19390
C          2.26240       -0.15810        0.16110
C          2.82170        1.09100        0.74900
C          4.11640        1.43470        0.69440
C          4.58500        2.63150        1.26450
C          4.98180        3.64450        1.74700
H          1.24150       -1.67460        0.79910
H          1.54200        0.08700       -0.62520
H          3.03990       -0.80550       -0.25640
H          2.10780        1.74220        1.24840
H          4.84040        0.78950        0.20600
H          5.33390        4.55060        2.18200
