14
3808	1
C          3.24180        1.35940        0.30770
C          2.55930        0.07060       -0.05990
O          1.35860       -0.03590        0.14320
C          3.30410       -1.07690       -0.66320
C          2.53790       -2.33450       -1.00170
C          4.62950       -1.00230       -0.90420
F          5.30540       -2.04730       -1.45310
H          2.51360        2.07910        0.73930
H          3.69350        1.81870       -0.59640
H          4.03220        1.16620        1.06300
H          1.73710       -2.09390       -1.73210
H          2.07410       -2.74390       -0.07970
H          3.17680       -3.12720       -1.44380
H          5.19260       -0.10710       -0.66680
