16
1226	1
C          1.03920        0.11540        0.22730
C          2.55320        0.19710        0.10540
O          2.98020       -0.69000       -0.90650
C          4.39320       -0.70260       -0.97470
O          4.95080       -1.44440        0.09280
C          4.77600       -2.82400       -0.14030
H          0.68720        0.81040        1.01880
H          0.73450       -0.91880        0.49460
H          0.56390        0.39680       -0.73640
H          2.98650       -0.08150        1.09310
H          2.81970        1.24650       -0.15490
H          4.81740        0.32740       -0.96780
H          4.71030       -1.10110       -1.96540
H          5.17680       -3.37810        0.73310
H          5.35200       -3.15800       -1.03140
H          3.69930       -3.09140       -0.22540
