15
173	1
C          1.07740       -0.26400       -0.69160
C          2.46600       -0.06960       -0.07400
O          3.29160        0.65420       -0.95260
C          2.37550        0.62230        1.30120
C          3.74660        0.77870        1.96230
F          3.59980        1.40950        3.18410
F          4.32740       -0.46070        2.16470
H          1.16920       -0.78790       -1.66660
H          0.58210        0.71650       -0.85770
H          0.44060       -0.87840       -0.01990
H          2.91260       -1.07810        0.06530
H          2.88930        1.55450       -1.07180
H          1.72540        0.02070        1.97370
H          1.91710        1.62860        1.18210
H          4.41510        1.39480        1.32440
