14
4221	1
F          0.95000        0.00070       -0.31180
C          2.31200       -0.03620       -0.07350
C          2.80490        1.09240        0.81890
C          4.22580        0.64980        1.17780
C          4.04150       -0.82770        1.25060
O          4.86870       -1.58100        1.73850
C          2.75040       -1.29710        0.67440
H          2.86780        0.03050       -1.03760
H          2.18470        1.07170        1.74550
H          2.74540        2.11030        0.37900
H          4.53240        1.12140        2.13580
H          4.96530        0.86500        0.37650
H          2.07770       -1.56460        1.51790
H          2.84470       -2.14130       -0.04160
