21
1498	1
C          1.10490        0.15400        0.14260
C          2.61510       -0.13440        0.16980
C          2.98230       -1.09250        1.33020
N          2.41460       -2.42730        1.15330
C          3.07050       -0.65210       -1.21970
C          4.58280       -0.89770       -1.34120
N          5.34080        0.31630       -1.05410
H          0.77290        0.56230        1.11950
H          0.52030       -0.76210       -0.08290
H          0.87430        0.90650       -0.64000
H          3.12380        0.83470        0.37250
H          2.63710       -0.66460        2.29780
H          4.08680       -1.17740        1.39790
H          1.37670       -2.38850        1.26460
H          2.77960       -3.04290        1.91480
H          2.78570        0.10050       -1.98930
H          2.54160       -1.60180       -1.45880
H          4.81190       -1.24040       -2.37400
H          4.89900       -1.70670       -0.64850
H          5.10540        1.04870       -1.76360
H          6.36110        0.10080       -1.13910
