19
1569	1
C          0.87610        0.36430       -0.13310
C          2.34630        0.19080        0.24170
C          3.10090       -0.64770       -0.79990
F          3.03810       -0.02110       -2.03460
C          4.56840       -0.83180       -0.39210
N          5.27120       -1.66610       -1.37380
C          6.65830       -1.89040       -0.96510
H          0.36310        0.96770        0.64520
H          0.37610       -0.62520       -0.20260
H          0.78120        0.89060       -1.10650
H          2.40050       -0.31190        1.23220
H          2.81700        1.19460        0.32700
H          2.62250       -1.64880       -0.87920
H          4.59960       -1.32750        0.60430
H          5.06030        0.16460       -0.31300
H          5.28280       -1.17670       -2.29920
H          6.69460       -2.42080        0.01080
H          7.20820       -0.92640       -0.88730
H          7.16630       -2.52570       -1.72100
