13
1165	1
C          1.05160       -0.12400        0.06150
C          2.57230       -0.08280        0.02010
O          3.04610       -1.30290       -0.54140
C          3.05370        1.03230       -0.76090
C          3.45040        1.95140       -1.40460
C          3.95990        3.13430       -2.23360
C          4.35950        4.06100       -2.88290
H          0.70810       -0.98740        0.64140
H          0.62960       -0.23350       -0.94460
H          0.63710        0.78530        0.50910
H          2.95790       -0.02640        1.04320
H          2.79100       -1.30300       -1.48010
H          4.71570        4.88310       -3.45830
