15
496	1
C          0.99370       -0.11340        0.05370
C          2.53370       -0.04120        0.01520
C          3.06120       -0.99180       -1.07090
C          2.93650        1.37670       -0.33860
O          3.63310        2.04800        0.40850
C          3.13710       -0.45480        1.34830
O          2.43450       -0.78730        2.29130
H          0.56100        0.17670       -0.92860
H          0.58950        0.57540        0.82720
H          0.65400       -1.14550        0.28870
H          2.64610       -0.72270       -2.06660
H          2.77240       -2.04160       -0.84550
H          4.17040       -0.94010       -1.13200
H          2.59820        1.80940       -1.27550
H          4.21660       -0.45730        1.46780
