16
1664	1
N          2.73570        1.30370        0.16910
C          2.30500       -0.07240       -0.05260
C          2.79570       -0.96820        1.09140
C          3.11300       -2.42290        0.76880
C          4.24400       -1.39190        0.91890
N          5.00680       -1.66390        2.13810
H          2.35270        1.89900       -0.60050
H          3.77930        1.34920        0.11460
H          2.66990       -0.42300       -1.04510
H          1.19480       -0.10610       -0.06290
H          2.54830       -0.70830        2.14380
H          2.71320       -2.63970       -0.24460
H          2.76170       -3.00250        1.65010
H          4.79950       -1.41020       -0.04330
H          4.39690       -1.73660        2.98490
H          5.65890       -0.86120        2.28650
