14
4102	1
O          0.90230       -0.53420        0.69270
C          2.15090       -0.08350        0.24050
C          3.00620       -1.23470       -0.31280
O          4.30150       -0.90890       -0.73340
C          3.02380       -2.47150        0.56550
C          2.41260       -2.52930       -0.84570
F          3.23650       -3.05280       -1.82890
H          0.42330        0.26920        1.02400
H          2.70490        0.39400        1.07890
H          2.00320        0.65490       -0.57790
H          4.20670       -0.60870       -1.67380
H          2.17220       -2.72110        1.23270
H          3.90700       -3.14520        0.53420
H          1.35490       -2.30520       -1.09760
