14
493	1
C          1.01400        0.00450       -0.57940
C          2.37770       -0.20080        0.07600
C          2.29970       -0.04840        1.60130
F          1.43100       -0.99170        2.12530
C          3.67650       -0.22900        2.23820
F          3.58120       -0.07660        3.60950
H          1.11040       -0.10550       -1.68020
H          0.62820        1.02210       -0.35650
H          0.28690       -0.75030       -0.21160
H          3.08400        0.55290       -0.33600
H          2.75230       -1.21580       -0.18090
H          1.92190        0.96710        1.85190
H          4.38440        0.53060        1.84320
H          4.07380       -1.24240        2.01590
