14
786	1
C          1.13260       -0.15180        0.02660
C          2.63110       -0.07080       -0.04920
C          3.42430        0.28650        1.19570
N          3.22990       -0.71430        2.24100
N          3.20790       -0.28940       -1.18390
O          4.51560       -0.22710       -1.32550
H          0.72330        0.82500        0.35890
H          0.82380       -0.94120        0.74180
H          0.69820       -0.39780       -0.96630
H          3.09710        1.28390        1.56340
H          4.51120        0.35580        0.98000
H          2.23990       -0.68310        2.57510
H          3.83410       -0.46120        3.05620
H          4.91690       -0.39670       -2.18820
