13
5739	1
N          0.93400        0.17560        0.15200
N          2.33520        0.09320        0.05020
N          3.13270        1.14740        0.03490
H          2.81200        2.13950        0.09460
C          4.41000        0.72130       -0.06930
C          4.41650       -0.66620       -0.12150
C          3.08430       -1.02090       -0.04250
N          2.61630       -2.21490       -0.05410
H          0.58400        0.69850       -0.68260
H          0.51780       -0.78300        0.13340
H          5.27380        1.37170       -0.10450
H          5.27550       -1.31920       -0.20500
H          3.24320       -3.03000       -0.12750
