10
3459	1
O          1.06710       -0.39610        0.02810
C          2.26760        0.22560       -0.04280
O          2.53650        0.88620       -1.03670
C          3.10410        0.07730        1.22170
F          2.81270       -1.07520        1.89910
C          4.52380        0.07730        0.95780
C          5.69400        0.07730        0.74030
H          0.64200       -0.20590       -0.83420
H          2.83210        0.90650        1.88280
H          6.74150        0.07390        0.54270
