18
6406	1
C          1.24970       -0.46800       -0.94310
C          2.71700       -0.31620       -1.31940
O          3.31240        0.64720       -0.47720
C          4.63940        0.87510       -0.90260
C          5.37040        1.88860       -0.04010
N          6.50740        0.98860        0.15780
C          5.67920       -0.09710       -0.36870
H          0.76740       -1.22450       -1.59830
H          0.72150        0.50130       -1.06880
H          1.15680       -0.79750        0.11350
H          2.75480        0.00410       -2.38640
H          3.21080       -1.30610       -1.19360
H          4.79650        1.13830       -1.97500
H          4.85260        2.05710        0.93580
H          5.63900        2.82930       -0.56720
H          6.68690        0.84740        1.18000
H          5.28010       -0.71060        0.47530
H          6.18510       -0.69350       -1.15770
