19
11	1
C          1.04670       -0.24630        0.20670
C          2.54760        0.10170        0.27240
C          2.82200        0.94600        1.53500
O          3.29750       -1.08940        0.31780
C          2.92290        0.88530       -1.01570
C          4.39580        1.31190       -1.12750
O          5.24810        0.19790       -1.15030
H          0.73780       -0.82030        1.10670
H          0.83140       -0.86790       -0.68890
H          0.42940        0.67660        0.15390
H          2.51300        0.39080        2.44660
H          2.25470        1.90090        1.49920
H          3.90230        1.17320        1.63940
H          3.03860       -1.58800        1.13710
H          2.29990        1.80520       -1.07700
H          2.68440        0.25650       -1.90220
H          4.67710        2.02320       -0.31850
H          4.53540        1.86940       -2.07780
H          5.61200        0.09090       -0.23290
