11
4535	1
N          1.03610        0.04470       -0.07130
C          2.44760        0.05440       -0.06580
C          3.24400        1.18080       -0.06520
C          4.54240        0.71620       -0.05910
C          4.45090       -0.66200       -0.05650
F          5.49560       -1.52470       -0.05050
O          3.18970       -1.02780       -0.06060
H          0.50940        0.93010       -0.07520
H          0.52640       -0.85020       -0.07130
H          2.92020        2.21320       -0.06870
H          5.44670        1.30970       -0.05690
