15
2057	1
C          2.86390        0.03140        0.71120
N          2.63420       -0.27730       -0.70120
N          2.99100       -1.59840       -0.98450
C          4.28700       -2.01490       -1.01370
O          5.19680       -1.22650       -0.79030
O          4.56140       -3.31130       -1.31200
C          5.84280       -3.81650       -1.38660
H          2.51130        1.06310        0.92020
H          3.94000       -0.02320        0.97450
H          2.28800       -0.67100        1.35130
H          3.16360        0.37350       -1.32730
H          2.24630       -2.27230       -1.21540
H          5.79360       -4.89510       -1.64100
H          6.35870       -3.70280       -0.40910
H          6.41730       -3.28860       -2.17780
