11
5182	2
O          0.96490       -0.05300        0.07370
C          2.18600       -0.02190        0.07860
C          2.90430        1.29930        0.06540
O          4.28330        1.15140        0.07320
C          4.92990       -0.04480        0.09090
N          4.27390       -1.15460        0.10180
N          2.89640       -1.17540        0.09600
H          2.60300        1.88480        0.95940
H          2.61090        1.86240       -0.84550
H          6.01400       -0.06460        0.09590
H          2.40610       -2.08220        0.10510
