7
597	1
F          0.92180        0.00520       -0.08800
C          2.30340        0.01490       -0.09900
C          2.79850        0.46000        1.20490
N          3.18950        0.81280        2.23550
C          2.79850       -1.33410       -0.37900
N          3.18950       -2.40050       -0.60130
H          2.66100        0.71000       -0.88630
