13
5661	2
C          1.15540        0.01420        0.25600
C          2.47600        0.02760        0.05080
C          3.36280        1.23300       -0.00830
O          4.70690        0.76080       -0.24900
N          4.61160       -0.58950       -0.32290
C          3.32400       -1.07160       -0.15380
N          2.99380       -2.31260       -0.18380
H          0.61680        0.94510        0.40120
H          0.60920       -0.92360        0.27950
H          3.32250        1.77610        0.95980
H          3.04160        1.89450       -0.84060
H          5.43120       -1.19090       -0.49040
H          3.70330       -3.04270       -0.34250
