16
3673	2
C          0.97340       -0.57440       -0.14670
C          2.48300       -0.50170       -0.17180
C          3.17590       -1.65730       -0.08750
C          3.15510        0.85010       -0.28960
N          4.44040        0.97460       -0.29720
N          2.35630        2.03320       -0.39460
N          2.94290        3.29010       -0.50220
H          0.59680       -1.61600       -0.05520
H          0.56170       -0.15060       -1.08650
H          0.58620       -0.00040        0.72120
H          2.65460       -2.60630       -0.00440
H          4.25430       -1.70460       -0.09920
H          5.10010        0.19250       -0.22500
H          1.32990        1.97430       -0.39340
H          3.54280        3.30470       -1.35850
H          3.53520        3.45380        0.34370
