12
5751	2
N          1.00480        0.06090       -0.20890
N          2.40580       -0.00720       -0.10680
N          3.19920        1.05090       -0.11860
C          4.46350        0.58090       -0.00280
N          4.47240       -0.76850        0.08100
H          5.30010       -1.39810        0.17620
C          3.17350       -1.10300        0.01250
N          2.72970       -2.30530        0.05480
H          0.65180        0.60650        0.60960
H          0.59840       -0.90080       -0.15890
H          5.34820        1.20300        0.01940
H          3.37480       -3.10370        0.14710
