13
6333	1
O          1.00390       -0.07460        0.36570
C          2.30110        0.08160       -0.13490
C          3.14890        1.15910        0.62040
C          4.06190        0.06020        1.25150
O          5.39270        0.05490        0.79240
C          3.20820       -0.86090        0.50980
O          3.24040       -2.07990        0.45060
H          0.52320        0.75870        0.12470
H          2.39170        0.03400       -1.24190
H          2.56040        1.69250        1.39980
H          3.69160        1.82030       -0.09090
H          3.96380       -0.08900        2.34780
H          5.39300        0.17170       -0.19440
