13
2702	2
C          0.89510        0.11440        0.09860
C          2.35100        0.08120       -0.04090
C          3.55060        0.05400       -0.15630
C          4.98810        0.02130       -0.29480
N          5.56380        0.70450       -1.21930
N          5.76330       -0.76850        0.59420
O          7.09820       -0.81850        0.47460
H          0.48580        0.95770       -0.49490
H          0.62870        0.25070        1.16690
H          0.46620       -0.83980       -0.27060
H          5.02010        1.28510       -1.87590
H          5.29930       -1.32170        1.33030
H          7.43590       -0.12700        1.09960
