17
3554	1
C          0.86500       -0.49820        0.53910
N          2.27180       -0.20840        0.30760
C          3.22810       -0.43040        1.38360
C          2.70780        0.29330       -0.97680
N          3.95140        0.56570       -1.19430
N          1.76520        0.49760       -2.03540
N          2.17100        0.98040       -3.27550
H          0.67610       -0.87360        1.56690
H          0.51880       -1.27950       -0.17010
H          0.26330        0.42590        0.40590
H          2.74330       -0.81800        2.30420
H          3.72860        0.52520        1.64780
H          3.98570       -1.17820        1.06610
H          4.68980        0.44750       -0.48850
H          0.76770        0.28910       -1.89800
H          2.87350        0.31760       -3.67660
H          2.61210        1.91860       -3.13850
