14
1091	2
C          4.52710       -1.34320        0.92310
N          4.20640        0.00410        0.52540
N          4.70110        0.51270       -0.65410
C          4.42940        1.71290       -1.03240
C          4.96760        2.24660       -2.30210
N          5.75980        1.49180       -3.10200
O          4.69040        3.38940       -2.63200
H          5.05500       -1.32530        1.89930
H          5.18070       -1.83050        0.16810
H          3.59170       -1.93200        1.02400
H          3.60350        0.57850        1.13530
H          3.79740        2.35070       -0.41890
H          6.00800        0.52520       -2.84590
H          6.12640        1.87990       -3.98380
