16
2781	2
C          0.75550       -0.15770       -0.16100
C          2.20780        0.24880       -0.11690
C          2.78530        1.14440        0.72780
C          2.00430        1.89420        1.79550
N          4.19640        1.37860        0.58950
C          4.88860        2.24810        1.37220
O          6.08790        2.39930        1.20070
H          0.69050       -1.25340        0.00270
H          0.35580        0.06940       -1.17100
H          0.08700        0.32170        0.57000
H          2.84410       -0.24030       -0.84950
H          0.92810        1.67670        1.85720
H          2.09380        2.98540        1.61270
H          2.43010        1.65570        2.79250
H          4.71740        0.86420       -0.13880
H          4.40010        2.81780        2.15360
