11
200	1
C          0.96520       -0.11210        0.04640
N          2.42920       -0.10660        0.00390
C          2.92800       -1.35910       -0.57300
C          4.39540       -1.37290       -0.57360
N          5.55260       -1.39150       -0.57770
H          0.60270        0.84100        0.48580
H          0.59110       -0.95100        0.67450
H          0.54580       -0.20140       -0.97890
H          2.78060       -0.01270        0.98630
H          2.57930       -1.45830       -1.62350
H          2.57020       -2.23140        0.01610
