19
3786	1
C          0.83060        0.06990       -0.13810
C          2.34390        0.08320        0.10550
C          3.10600        0.16560       -1.22200
C          2.72490        1.24210        1.00760
C          3.37190        0.96150        2.34530
N          2.48520        2.45210        0.60770
N          2.79080        3.57440        1.34720
H          0.55280       -0.79720       -0.77480
H          0.50060        1.00210       -0.64530
H          0.29110       -0.02200        0.82890
H          2.61480       -0.88040        0.58950
H          2.85570        1.10110       -1.76730
H          2.84620       -0.70080       -1.86710
H          4.20080        0.14290       -1.03350
H          3.49940       -0.12680        2.52020
H          2.73790        1.36430        3.16290
H          4.37710        1.43140        2.38440
H          2.57170        4.50480        0.96520
H          3.23410        3.51500        2.27450
