8
347	1
C         -1.16440       -0.00050       -0.00040
C         -0.32490        1.08910       -0.00020
N          0.94820        0.65250        0.00240
O          0.91480       -0.64930        0.00390
C         -0.32270       -1.08920        0.00230
H         -2.24600       -0.00150       -0.00220
H         -0.61690        2.13060       -0.00190
H         -0.61040       -2.13190        0.00300
