13
3687	2
N          0.92460       -0.24850        0.32850
N          2.28230       -0.20170        0.02650
C          3.13470       -1.32760        0.24680
N          2.66050       -2.43330        0.71260
C          4.58370       -1.21830       -0.07300
F          5.06970       -0.04710       -0.56430
C          5.43120       -2.23980        0.10820
H          0.49880        0.67180        0.07340
H          0.82770       -0.36600        1.36280
H          2.67990        0.66140       -0.37610
H          1.66430       -2.55390        0.94180
H          5.09320       -3.19520        0.49780
H          6.48170       -2.12080       -0.13660
