10
5285	1
O          0.90790       -0.02210        0.10520
C          2.12770       -0.01230        0.08890
O          2.80140        1.15590        0.06740
C          4.18790        1.22160        0.04830
O          4.80780       -0.02970        0.05350
N          4.16600       -1.19260        0.07450
C          2.88420       -1.25650        0.09220
H          4.52940        1.79140        0.93710
H          4.50550        1.77210       -0.86130
H          2.38330       -2.21890        0.10920
