14
1427	1
C          0.89900       -0.07430       -0.10410
C          2.43170       -0.08120       -0.04000
O          2.99630        0.16240       -1.30250
C          3.02130       -1.36510        0.62470
O          3.68530       -0.88050        1.73360
N          3.60040        0.41870        1.85480
C          2.92690        0.94130        0.92030
H          0.54260       -0.88670       -0.77230
H          0.53730        0.89760       -0.50300
H          0.46220       -0.22990        0.90620
H          2.76750       -0.61310       -1.87890
H          3.74230       -1.88540       -0.04180
H          2.22890       -2.07170        0.95350
H          2.75400        2.00700        0.84780
