13
4270	2
N          1.13880       -0.14660        0.36610
C          2.35450       -0.03580       -0.03180
C          3.05890        1.26130       -0.21640
C          4.38850        0.73380       -0.67560
O          5.32640        1.46190       -0.95860
C          4.46800       -0.76490       -0.75770
N          3.15220       -1.15010       -0.33700
H          0.57620        0.68910        0.58320
H          3.14840        1.81900        0.73980
H          2.57390        1.88360       -0.99780
H          5.23560       -1.16670       -0.06320
H          4.66220       -1.10210       -1.79770
H          2.83270       -2.12750       -0.26770
