15
2417	1
C          1.38120        0.53410        0.11030
C          2.87550        0.22620        0.04480
C          3.13800       -1.27800       -0.09730
F          2.53480       -1.74860       -1.25460
C          4.62510       -1.54290       -0.10090
C          5.25290       -2.13630       -1.12350
F          6.59370       -2.34590       -1.06300
H          1.23200        1.62890        0.22030
H          0.92020        0.02330        0.98240
H          0.87260        0.20060       -0.81900
H          3.35260        0.60010        0.97750
H          3.31840        0.76570       -0.82110
H          2.69620       -1.81350        0.77040
H          5.20650       -1.23890        0.76500
H          4.71200       -2.45650       -2.00780
