17
747	1
C          3.34440       -0.36450       -2.12900
C          2.98380       -0.59700       -0.68250
C          2.35700       -1.72870       -0.32040
C          3.31210        0.45770        0.35520
C          4.82150        0.69780        0.47030
C          5.10790        1.72430        1.52560
O          5.68780        2.75960        1.23920
H          3.02260       -1.20610       -2.77940
H          4.44200       -0.25500       -2.24030
H          2.84820        0.56100       -2.48850
H          2.10980       -2.48890       -1.05520
H          2.08430       -1.90900        0.71500
H          2.93060        0.14940        1.35470
H          2.80180        1.40460        0.07440
H          5.22840        1.04840       -0.50240
H          5.33020       -0.24950        0.75080
H          4.80120        1.54680        2.55150
