12
30	1
C          0.99710       -0.00950        0.16140
C          2.49560       -0.06540       -0.11140
C          2.88540       -1.42520       -0.62460
C          3.45460       -1.58640       -1.82300
H          0.72680        0.99380        0.55300
H          0.71190       -0.77390        0.91580
H          0.42870       -0.19150       -0.77590
H          3.04780        0.13250        0.83180
H          2.75620        0.73170       -0.84220
H          2.70040       -2.29710       -0.00370
H          3.65350       -0.73560       -2.46750
H          3.72480       -2.58030       -2.16440
