12
2881	1
F          1.73350        0.06770       -1.29850
C          2.41680        0.07010       -0.09720
C          2.79770       -1.33910        0.25900
C          4.07950       -1.71500        0.43240
F          5.08290       -0.80760        0.28570
C          4.45390       -3.12960        0.78970
F          3.35150       -3.95900        0.91140
H          1.75390        0.47630        0.69470
H          3.29710        0.73980       -0.19100
H          1.99550       -2.06120        0.37560
H          5.00330       -3.12560        1.75390
H          5.11970       -3.53750        0.00110
