14
5275	2
O          0.93330        0.02680        0.51520
C          2.12010        0.07160        0.23180
N          2.78990        1.25770        0.25300
C          4.16130        1.32540       -0.23020
C          4.93120        0.10900        0.28240
C          4.19660       -1.14260       -0.15130
C          2.85170       -1.16810       -0.12360
H          2.31950        2.11540        0.57990
H          4.63310        2.28620        0.06720
H          4.15440        1.27100       -1.34160
H          4.92320        0.15750        1.39320
H          5.98640        0.08900       -0.06280
H          4.75390       -2.02240       -0.45730
H          2.31280       -2.07910       -0.36500
