21
67	1
C          0.88910        0.41380        1.89020
C          2.37270        0.60000        2.01700
C          3.20580        0.28290        1.00590
C          4.72590        0.43910        1.04680
C          5.35570       -0.94610        0.81440
C          5.14030        1.38700       -0.09310
C          5.25960        1.00760        2.38160
H          0.54010       -0.28400        2.67940
H          0.60020        0.00110        0.89980
H          0.38550        1.39340        2.02540
H          2.74680        0.99880        2.95190
H          2.77700       -0.11390        0.08840
H          5.02200       -1.37460       -0.15580
H          5.06090       -1.64820        1.62430
H          6.46520       -0.87780        0.79770
H          4.80330        0.99360       -1.07690
H          6.24540        1.50300       -0.12830
H          4.68780        2.39190        0.05290
H          4.99740        0.33860        3.22960
H          4.84250        2.01930        2.57600
H          6.36720        1.09850        2.35280
