16
86	1
C          1.03500       -0.07220        0.17260
C          2.55350       -0.17320       -0.04210
C          2.97910       -1.64670       -0.05020
C          2.98810        0.50640       -1.35670
C          2.68470        1.97700       -1.35180
O          1.95090        2.45870       -2.19990
H          0.75080       -0.56050        1.12910
H          0.48780       -0.56790       -0.65800
H          0.71500        0.98940        0.22740
H          3.06710        0.32740        0.80900
H          2.48950       -2.19370       -0.88480
H          2.69900       -2.13310        0.90860
H          4.08080       -1.72780       -0.16800
H          2.48380        0.01530       -2.21880
H          4.08610        0.39210       -1.48530
H          3.12070        2.61730       -0.59180
