17
2455	1
C          4.06480        1.15770       -1.25360
O          3.54700        0.02260       -1.91300
C          3.55220       -1.09840       -1.04790
C          2.44070       -2.05080       -1.48070
C          4.87980       -1.80190       -1.13270
N          5.59900       -1.95580       -0.07680
N          6.81630       -2.59300       -0.12810
H          4.13030        1.98760       -1.98670
H          5.09590        0.97780       -0.87600
H          3.38450        1.49010       -0.43900
H          3.32650       -0.81310        0.00920
H          2.59680       -2.38300       -2.52990
H          1.45810       -1.53700       -1.41370
H          2.41770       -2.94330       -0.81880
H          5.22430       -2.17500       -2.09450
H          7.37080       -2.70190        0.73240
H          7.18590       -2.96510       -1.01640
