16
5544	1
C          0.99800        0.06640       -0.26670
C          2.49280        0.00920        0.04500
C          2.98570        1.10050        0.98400
O          4.23550        0.66970        1.49600
C          4.32670       -0.71420        1.20280
C          2.93010       -1.18330        0.83670
F          2.92260       -2.36650        0.11900
H          0.76210        1.00960       -0.80310
H          0.39880        0.02500        0.66800
H          0.71490       -0.79150       -0.91250
H          3.07740        0.05240       -0.90490
H          2.29320        1.21090        1.84970
H          3.06520        2.07300        0.45350
H          4.72880       -1.29860        2.05710
H          5.00780       -0.82760        0.32880
H          2.31230       -1.28000        1.76010
