9
247	1
F          1.86220       -1.18650       -0.69270
C          2.43190       -0.06330       -0.12380
C          2.91040       -0.39540        1.25880
C          4.19480       -0.26790        1.60640
F          4.58990       -0.57830        2.86840
H          1.66780        0.73910       -0.06120
H          3.26000        0.28830       -0.77620
H          2.19150       -0.74750        1.99260
H          4.93320        0.08220        0.89140
