14
3362	1
C          0.98970       -0.05290       -0.29600
C          2.46130        0.07530        0.00490
C          2.97730        1.28870        0.28540
C          3.30790       -1.19470       -0.02050
O          3.23330       -1.81460       -1.27780
C          4.72340       -1.02130        0.36100
N          5.83280       -0.88630        0.66180
H          0.46180        0.92400       -0.24900
H          0.51990       -0.73670        0.44160
H          0.85140       -0.47130       -1.31480
H          2.34410        2.17070        0.29510
H          4.02930        1.42670        0.50680
H          2.87110       -1.89390        0.72310
H          3.59500       -1.17490       -1.94700
