15
6289	1
C          0.91040        0.06440       -0.00790
C          2.43540        0.07110        0.03410
C          3.11540        1.13980        0.89180
C          4.17000        0.08510        1.24200
F          5.16280        0.09410        0.27080
C          3.12330       -0.98170        0.90340
F          3.59300       -2.09910        0.23550
H          0.54940        0.96500       -0.54710
H          0.48740        0.06520        1.01910
H          0.55750       -0.84240       -0.54210
H          2.89350        0.07440       -0.98390
H          2.50140        1.32820        1.80460
H          3.43930        2.08800        0.41260
H          4.61530        0.09310        2.25940
H          2.51590       -1.21330        1.80960
