13
4977	1
F          0.74160        0.11650       -0.35610
C          2.10750        0.32660       -0.30700
F          2.47100        0.61760        0.99610
C          2.83450       -0.92490       -0.79300
C          4.35220       -0.72660       -0.74630
C          5.14640       -1.41310       -1.79110
O          4.83450       -0.03250       -1.86200
H          2.35960        1.19090       -0.95790
H          2.49360       -1.15770       -1.82640
H          2.56780       -1.78100       -0.13730
H          4.88240       -0.44290        0.18720
H          4.63020       -1.91300       -2.63760
H          6.24250       -1.49880       -1.64110
