13
3683	2
C          0.99360        0.16510       -0.00710
N          2.43690        0.08520       -0.02510
C          3.12100       -0.89700        0.46940
N          2.48260       -2.01230        1.09040
C          4.59850       -0.85480        0.38490
O          5.33590       -1.86570        0.89250
O          5.15490        0.09620       -0.14510
H          0.67790        1.10910       -0.49670
H          0.62110        0.17040        1.03960
H          0.55360       -0.68640       -0.56880
H          1.45850       -2.07690        1.16790
H          3.04530       -2.78320        1.47750
H          6.30250       -1.85320        0.84530
