19
563	1
C          0.86660        1.68690       -0.34240
O          2.25770        1.90090       -0.41140
C          2.88590        0.73850       -0.90760
C          4.39860        0.96880       -1.03580
C          4.82470        2.06420       -2.04000
C          4.43540        1.74310       -3.49280
O          4.35860        3.33210       -1.64560
H          0.39360        2.60180        0.06960
H          0.61740        0.85230        0.35020
H          0.43270        1.52280       -1.35370
H          2.47750        0.44370       -1.89980
H          2.74410       -0.10150       -0.18960
H          4.86850        0.01030       -1.34790
H          4.80180        1.22920       -0.03270
H          5.93560        2.10530       -2.01960
H          3.33370        1.70770       -3.61960
H          4.86510        0.76510       -3.79720
H          4.83590        2.52880       -4.16800
H          3.43060        3.44450       -1.97830
