12
3432	1
N          1.18520        0.45220       -0.29830
C          2.52410        0.24980       -0.21450
O          3.18660        0.95760        0.53240
N          3.12970       -0.73090       -0.95280
O          2.39090       -1.50530       -1.76670
C          4.54220       -0.95250       -0.86140
N          5.11730       -1.87770       -1.54510
H          0.73800        1.19330        0.26160
H          0.59300       -0.12250       -0.91470
H          2.40400       -1.04440       -2.64530
H          5.15230       -0.33720       -0.20700
H          4.59120       -2.49310       -2.18180
