19
4870	1
C          1.14140        0.20250        0.05380
O          2.49850       -0.12490        0.24180
C          2.90610       -1.00460       -0.78370
C          4.36920       -1.44570       -0.65770
C          3.92650       -2.85870       -1.05130
C          4.00510       -3.09480       -2.57040
C          2.51460       -2.47910       -0.59430
H          0.83320        0.89080        0.86730
H          0.49110       -0.69730        0.12630
H          0.98510        0.74300       -0.90630
H          2.72500       -0.63960       -1.82270
H          4.64170       -1.46800        0.42450
H          5.14550       -0.92540       -1.25860
H          4.41470       -3.70170       -0.51490
H          3.53130       -2.28430       -3.16220
H          3.49730       -4.05000       -2.82060
H          5.06970       -3.17230       -2.87590
H          2.44150       -2.68760        0.49950
H          1.63630       -2.87780       -1.14550
