14
5428	1
F          0.97690        0.12860       -0.52680
C          2.28520        0.13230       -0.15950
C          2.98050        1.28660       -0.13490
C          4.42830        1.26400        0.20060
C          5.09620        0.09380        0.18820
C          4.39070       -1.16370       -0.27670
C          2.96110       -1.15590        0.26510
H          2.49080        2.22750       -0.36420
H          4.94100        2.18460        0.45980
H          6.14070        0.05630        0.48120
H          4.95910       -2.07010        0.02050
H          4.32560       -1.14090       -1.38690
H          3.02640       -1.16970        1.37540
H          2.37340       -2.04030       -0.06020
