17
5427	1
C          0.89670        0.05420       -0.15760
C          2.37710        0.06850        0.10170
C          3.07940        1.22520        0.08300
C          4.55390        1.19370        0.26620
C          5.21500        0.02590        0.15280
C          4.46380       -1.21920       -0.26870
C          3.10150       -1.22860        0.42320
H          0.50280        1.07200       -0.36600
H          0.37030       -0.35270        0.73080
H          0.68170       -0.59190       -1.03420
H          2.58180        2.17780       -0.07180
H          5.09280        2.10750        0.49490
H          6.28420       -0.01790        0.33500
H          5.06070       -2.13120       -0.05620
H          4.28030       -1.16840       -1.36460
H          3.28660       -1.26540        1.51950
H          2.49200       -2.11540        0.14650
