16
2015	2
C          1.44470        0.78110        0.62070
C          2.51350       -0.18250        0.11240
N          3.75770       -0.01740        0.84270
C          4.92540       -0.80170        0.56300
N          4.92390       -1.70160       -0.36010
C          6.19160       -0.58950        1.34880
F          6.04950        0.40300        2.30190
H          0.50560        0.63460        0.04640
H          1.78320        1.83120        0.49130
H          1.23960        0.59260        1.69610
H          2.68660        0.01790       -0.96720
H          2.14230       -1.22250        0.24010
H          3.80250        0.69120        1.59040
H          4.09930       -1.90650       -0.94020
H          7.01050       -0.30120        0.65670
H          6.47030       -1.53460        1.86050
