14
704	1
C          1.00860       -0.29400        0.79540
C          2.28840        0.11690        0.06650
C          2.04540        0.57500       -1.35720
O          0.90980        0.58760       -1.80960
C          3.16090        1.01530       -2.23200
C          4.43830        1.03860       -1.83220
H          1.25630       -0.61740        1.82840
H          0.51800       -1.13950        0.26740
H          0.30410        0.56320        0.85180
H          2.97790       -0.75440        0.05190
H          2.76450        0.94450        0.63500
H          2.92930        1.33370       -3.24450
H          4.73050        0.73270       -0.83380
H          5.21020        1.37110       -2.51860
