16
2	1
C          1.02560       -0.02130       -0.08180
C          2.56700       -0.01960       -0.08120
C          3.08470       -1.16070        0.81290
C          3.08470       -0.22520       -1.51610
N          3.06730        1.26160        0.43340
H          0.63210       -0.98690       -0.46970
H          0.63740        0.80070       -0.72150
H          0.63750        0.12980        0.94870
H          2.72910       -2.14680        0.44040
H          2.72650       -1.03100        1.85670
H          4.19580       -1.16900        0.82650
H          2.72910       -1.19500       -1.92920
H          4.19580       -0.22180       -1.53180
H          2.72640        0.59040       -2.18020
H          2.72660        1.41950        1.41000
H          2.72660        2.05120       -0.16260
