13
5636	1
O          1.10720        0.19740        0.32510
N          2.40590        0.22060       -0.00790
C          3.17430        1.40650       -0.23310
C          4.58120        0.81660       -0.59900
O          4.43850       -0.56860       -0.56430
C          3.19280       -0.89450       -0.22400
N          2.77210       -2.10150       -0.11180
H          1.09770        0.21550        1.31630
H          3.21470        2.02100        0.69160
H          2.73890        1.97940       -1.07970
H          5.34310        1.12670        0.14780
H          4.89170        1.13990       -1.61540
H          3.40540       -2.89520       -0.28630
