14
3604	1
C          0.89230       -0.04140        0.18170
N          2.30560       -0.01290       -0.14160
C          3.02930       -1.27100       -0.04710
C          3.00050        1.25360       -0.13670
N          4.26420        1.33100       -0.30680
C          2.28650        2.47320        0.06150
N          1.70080        3.45340        0.22240
H          0.44480       -1.02160       -0.05900
H          0.32880        0.71710       -0.38640
H          0.76320        0.14000        1.26660
H          2.34390       -2.13530       -0.15260
H          3.51060       -1.34390        0.94710
H          3.78710       -1.37210       -0.83710
H          4.80590        0.48750       -0.46120
