12
5484	1
N          1.04370       -0.07680       -0.03390
C          2.45990       -0.05680       -0.03000
C          3.15880        1.15380       -0.02660
N          4.51740        1.15060       -0.02280
C          5.21180       -0.01800       -0.02230
N          4.55070       -1.20570       -0.02560
C          3.19270       -1.24710       -0.02940
H          0.50810        0.80360       -0.03420
H          0.53310       -0.97190       -0.03640
H          2.62550        2.09550       -0.02690
H          6.29300       -0.00270       -0.01930
H          2.68610       -2.20350       -0.03200
