11
4383	1
C          1.07010       -0.04570        0.04640
N          2.52440       -0.05070        0.04260
N          3.28200        1.03910        0.03530
C          4.56130        0.61170        0.03400
C          4.51580       -0.76280        0.04090
O          5.46320       -1.52700        0.04220
O          3.25970       -1.12310        0.04600
H          0.68830        0.99730        0.04230
H          0.69980       -0.56400        0.95520
H          0.69500       -0.57290       -0.85540
H          5.43450        1.25040        0.02860
