21
1510	1
C          0.73950        0.07700       -0.17610
C          2.22280       -0.15480        0.11230
C          2.80310        0.82170        1.16310
N          2.14000        0.67500        2.46270
C          4.31740        0.57710        1.32080
C          4.96480        1.56650        2.29870
N          6.40010        1.31900        2.39060
H          0.40440       -0.62740       -0.96650
H          0.57390        1.11550       -0.53310
H          0.12060       -0.10790        0.72540
H          2.77420       -0.01840       -0.84390
H          2.36640       -1.20500        0.44840
H          2.65860        1.86390        0.79880
H          2.17070       -0.32220        2.77790
H          1.14680        0.99420        2.40960
H          4.80990        0.69450        0.33020
H          4.49170       -0.46190        1.67830
H          4.50800        1.46840        3.30850
H          4.80020        2.60390        1.93390
H          6.55890        0.37060        2.80220
H          6.81630        2.02120        3.04410
