17
4880	1
C          1.11930       -0.21960        0.31690
C          2.56750       -0.03900       -0.13800
C          3.26630        1.16160        0.47100
C          4.13880        0.09160        1.10030
C          5.60120        0.12700        0.64190
O          6.29630       -0.97850        1.15010
O          3.42650       -0.95930        0.49120
H          0.49210        0.59750       -0.09760
H          1.04830       -0.20620        1.42580
H          0.73290       -1.19210       -0.05350
H          2.69220       -0.08270       -1.24350
H          2.66410        1.69770        1.23740
H          3.78010        1.77040       -0.30540
H          4.02140        0.05360        2.20700
H          6.08090        1.05040        1.02940
H          5.67960        0.15610       -0.46960
H          6.06700       -1.75070        0.56980
