14
5810	1
N          0.88890       -0.04040       -0.23870
C          2.33950        0.04760       -0.07660
C          3.03850       -1.15950       -0.62550
C          3.86040       -0.78970       -1.66300
O          3.80360        0.52670       -1.88590
C          2.94390        1.07180       -1.00410
C          2.67440        2.37890       -0.97220
H          0.52900       -0.82930        0.34590
H          0.64450       -0.23250       -1.23840
H          2.60850        0.23610        0.98500
H          2.92200       -2.17390       -0.26770
H          4.47800       -1.47130       -2.23220
H          3.15260        3.05280       -1.67560
H          1.97540        2.77750       -0.24380
