17
2493	1
C          1.00720        0.18900       -0.04830
C          2.49060       -0.18990       -0.16510
C          2.83870       -1.58430        0.32660
C          1.95090       -2.46670        0.80810
C          2.91640       -0.07270       -1.60170
N          3.82110        0.77710       -1.94240
N          4.22710        0.90270       -3.25000
H          0.68100        0.14430        1.01260
H          0.37280       -0.49000       -0.65840
H          0.85250        1.22920       -0.40770
H          3.06810        0.53200        0.45430
H          3.88220       -1.88460        0.28490
H          0.89360       -2.24310        0.88200
H          2.29210       -3.44260        1.13780
H          2.45210       -0.71290       -2.34900
H          4.95290        1.59070       -3.49410
H          3.81640        0.31800       -3.99400
