18
2724	1
C          0.85170       -0.04250        0.09260
C          2.37740       -0.01070        0.09060
C          2.95180       -1.06770       -0.85780
C          4.45770       -1.00980       -0.86060
F          5.06660        0.14300       -1.25290
C          5.19200       -2.07360       -0.48790
C          6.69370       -2.04980       -0.48100
H          0.46420        0.73170        0.78790
H          0.48630       -1.03640        0.42820
H          0.45990        0.16580       -0.92580
H          2.74240       -0.20070        1.12380
H          2.71280        1.00120       -0.22600
H          2.59150       -0.87960       -1.89210
H          2.59180       -2.07230       -0.54180
H          4.69780       -2.98990       -0.17770
H          7.10840       -1.07460       -0.81190
H          7.07310       -2.84120       -1.16010
H          7.05590       -2.25420        0.54780
