12
6186	1
C          0.98320        0.00440       -0.08980
C          2.47500       -0.02610       -0.08940
N          3.27200        1.06130       -0.09010
N          4.52800        0.62540       -0.08950
N          4.55650       -0.69980       -0.08840
H          5.42430       -1.27990       -0.08780
C          3.28740       -1.12920       -0.08840
O          2.90510       -2.41960       -0.08750
H          0.62140        1.05410       -0.09070
H          0.59960       -0.50990        0.81590
H          0.60000       -0.51130       -0.99480
H          3.56160       -3.12990       -0.08680
