15
2109	1
C          1.01950        0.28590       -0.05970
O          2.37300        0.24920        0.21130
C          2.94140       -0.18690        1.37370
C          2.20290       -0.63650        2.40920
C          4.44420       -0.15200        1.48470
C          5.05850       -1.00980        0.42010
O          5.77990       -1.94700        0.72220
H          0.86660        0.68730       -1.08230
H          0.50000        0.95240        0.66140
H          0.59000       -0.73770       -0.01550
H          1.12060       -0.67350        2.36370
H          2.67950       -0.97650        3.32360
H          4.78570       -0.50190        2.48470
H          4.79140        0.89400        1.35150
H          4.86590       -0.79700       -0.62680
