10
110	1
F          1.12450        0.74840       -0.51270
C          2.36330        0.36650       -0.09870
C          2.73480        0.61190        1.16060
C          3.28560       -0.31270       -1.03590
C          2.93200       -0.56660       -2.29900
H          2.05210        1.11050        1.84120
H          3.71690        0.31930        1.52060
H          4.27290       -0.61380       -0.69570
H          1.95510       -0.28190       -2.67750
H          3.62800       -1.06620       -2.96520
