9
1061	1
N          0.97490        0.05920        0.07500
C          2.25750        0.06290        0.07140
N          3.05830        1.20660        0.07040
C          4.26350        0.76610        0.06640
C          4.26340       -0.63880        0.06480
N          3.05810       -1.07930        0.06780
H          0.44840        0.94480        0.07760
H          5.13440        1.40770        0.06470
H          5.13430       -1.28030        0.06160
