12
529	1
O          3.03570       -1.35690        0.49450
C          2.62670       -0.10390        0.01880
C          3.08610        0.08300       -1.43450
O          2.60220        1.29950       -1.95040
C          4.58840       -0.00340       -1.55570
O          5.23520        0.92270       -2.02000
H          2.70440       -1.41850        1.42790
H          3.06180        0.70150        0.65300
H          1.51560       -0.04290        0.04810
H          2.64960       -0.73840       -2.04230
H          2.94210        2.03240       -1.37210
H          5.10280       -0.90290       -1.23320
