13
44	1
C          0.91690       -0.05760       -0.01190
N          2.36020       -0.00510        0.12260
C          3.08110        1.11480       -0.45670
C          3.04310       -1.05510        0.82160
N          4.32220       -1.06040        0.97150
H          0.46400        0.83840        0.46310
H          0.49010       -0.96150        0.47340
H          0.64190       -0.07830       -1.08770
H          2.38620        1.82450       -0.95590
H          3.80180        0.74830       -1.21810
H          3.62320        1.66860        0.33890
H          2.47200       -1.87720        1.24200
H          4.93070       -0.31750        0.60220
