13
1513	1
N          1.09360       -0.00450        0.07480
C          2.54920       -0.01730        0.05860
C          3.03050        0.47270       -1.21160
C          3.42720        0.87650       -2.25850
C          3.90850        1.36650       -3.52870
O          4.58830        2.60220       -3.35270
H          0.76850       -0.40560        0.95170
H          0.75210       -0.61620       -0.66460
H          2.90620       -1.03670        0.23890
H          2.92110        0.60860        0.87610
H          3.08630        1.52710       -4.23270
H          4.60770        0.66080       -3.98670
H          3.97930        3.18010       -2.86040
