15
2041	1
C          2.56050       -0.32630       -1.48770
C          3.07480        0.21010       -0.15490
N          3.85280       -0.79460        0.54830
C          4.41270       -0.53810        1.76250
O          4.26800        0.55760        2.28870
N          5.13460       -1.49790        2.39470
O          5.68650       -1.25710        3.59370
H          1.97010        0.45960       -2.00420
H          1.90940       -1.21030       -1.31880
H          3.41310       -0.61850       -2.13710
H          2.20540        0.51160        0.46950
H          3.70850        1.10300       -0.34850
H          3.98570       -1.72450        0.12000
H          5.25830       -2.42530        1.96100
H          6.61970       -0.98610        3.39600
