19
3493	2
C          2.78290       -4.01650        2.00290
N          3.83350       -3.16820        1.48530
C          3.59190       -2.12860        0.52800
N          2.40620       -1.89650        0.07700
C          4.73970       -1.27740        0.02580
C          5.38410       -0.49940        1.17840
C          5.77770       -2.13970       -0.70090
H          3.20810       -4.74400        2.72650
H          2.30770       -4.58200        1.17380
H          2.02190       -3.40170        2.52840
H          4.79360       -3.32520        1.82430
H          1.58090       -2.43460        0.37350
H          4.34720       -0.53440       -0.70500
H          5.81910       -1.18500        1.93580
H          4.62570        0.14480        1.67280
H          6.19450        0.15430        0.79070
H          6.22850       -2.89080       -0.01850
H          6.59110       -1.49890       -1.10320
H          5.30120       -2.67090       -1.55260
