13
346	1
C          1.06650        0.01920       -0.15080
C          2.57160        0.09290        0.13280
O          2.94060        1.39790        0.51110
C          2.98070       -0.95200        1.15520
F          2.71940       -2.25940        0.88630
C          3.59510       -0.64520        2.30610
H          0.79420        0.76070       -0.93160
H          0.48360        0.23700        0.76980
H          0.79070       -0.99270       -0.51720
H          3.10130       -0.14250       -0.81490
H          2.34960        1.67920        1.25860
H          3.83540        0.37780        2.57330
H          3.86740       -1.43550        2.99820
