11
4378	1
C          1.07580        0.02470       -0.04770
N          2.53130        0.02650       -0.04450
C          3.35480        1.09230       -0.04540
N          4.64430        0.68990       -0.04150
C          4.53180       -0.65470       -0.03830
O          5.47950       -1.41860       -0.03420
O          3.27820       -1.03260       -0.04010
H          0.68450        1.06440       -0.05120
H          0.70410       -0.49820        0.85790
H          0.70810       -0.50290       -0.95210
H          3.03330        2.12570       -0.04880
