17
903	1
C          2.84220        0.16020       -1.97440
C          2.73940        0.41570       -0.49180
C          2.08900        1.49810       -0.03490
C          3.36500       -0.56380        0.47370
C          4.84810       -0.63210        0.26380
N          5.40430       -1.74270       -0.07280
N          6.76170       -1.82970       -0.27300
H          2.33370        0.94800       -2.57070
H          2.37230       -0.81640       -2.21390
H          3.90910        0.13160       -2.27920
H          1.63310        2.20510       -0.72140
H          2.00560        1.68980        1.03050
H          2.90230       -1.56280        0.31830
H          3.18290       -0.26460        1.52880
H          5.44510        0.26680        0.39840
H          7.17990       -2.73080       -0.54300
H          7.37110       -1.00510       -0.15950
