15
2058	1
C          4.76990        0.38780       -1.15510
O          5.15470        0.57130        0.18420
N          4.40710       -0.27480        0.91760
C          4.94640       -1.49600        1.41250
N          6.16230       -1.83380        1.14520
O          4.15940       -2.30220        2.17300
C          4.57950       -3.50470        2.70380
H          5.38030        1.06040       -1.79190
H          3.70280        0.66510       -1.30420
H          4.96760       -0.65500       -1.48980
H          3.44150       -0.01230        1.16860
H          6.77920       -1.24080        0.57200
H          3.74670       -3.95870        3.27910
H          5.43920       -3.34240        3.38890
H          4.87260       -4.20220        1.89010
