10
1501	1
C          1.39450        0.08720       -0.45820
N          2.65970        0.07600       -0.24590
N          3.17320        0.57440        0.92560
C          4.43910        0.56370        1.13880
C          4.97510        1.09990        2.39630
O          6.17770        1.09100        2.60140
H          1.00040       -0.30920       -1.38740
H          0.71060        0.49020        0.28380
H          5.11900        0.15910        0.39240
H          4.30460        1.50590        3.14730
