12
2799	1
C          0.72650       -0.01340       -0.43700
C          2.23270       -0.07900       -0.55710
O          2.98250       -0.99010        0.13060
C          2.55480       -1.94940        0.99680
O          1.37310       -2.10000        1.26290
C          2.86620        0.78290       -1.36450
F          4.21950        0.74020       -1.48630
H          0.44230        0.19660        0.61520
H          0.28120       -0.97630       -0.76310
H          0.29100        0.78990       -1.06960
H          3.28720       -2.59850        1.46360
H          2.31370        1.52580       -1.93220
