18
4871	1
C          2.81900       -1.15120        0.03410
O          2.41080        0.18260        0.23050
C          2.90580        0.97600       -0.82670
C          2.55860        2.46170       -0.68190
C          3.97850        2.79550       -1.15310
N          4.03750        2.96180       -2.61210
C          4.38430        1.38100       -0.72110
H          2.42730       -1.76250        0.87280
H          3.92730       -1.24590        0.05470
H          2.39100       -1.57140       -0.90310
H          2.62080        0.63230       -1.84920
H          2.49910        2.70920        0.40490
H          1.68900        2.87210       -1.23830
H          4.48630        3.64880       -0.65280
H          3.59530        2.17190       -3.13410
H          5.04100        3.01630       -2.90020
H          4.66470        1.42090        0.35820
H          5.13730        0.82570       -1.31990
