13
4513	1
C          0.97230       -0.06430        0.06500
C          2.46540       -0.07520        0.07030
C          3.30000        1.02340        0.07230
N          4.57950        0.59560        0.07760
C          4.48870       -0.75180        0.07860
O          5.55460       -1.57270        0.08380
N          3.21660       -1.18700        0.07420
H          2.88590       -2.17760        0.07400
H          0.58980        0.97820        0.06290
H          0.59480       -0.58560        0.96920
H          0.60100       -0.58700       -0.84080
H          3.00250        2.06370        0.07020
H          6.45360       -1.21580        0.08750
