11
4536	1
O          1.03630        0.01720       -0.08710
C          2.38190        0.03920       -0.08090
C          3.17330        1.17240       -0.08000
C          4.47530        0.71700       -0.07280
C          4.38780       -0.66240       -0.06990
O          5.42630       -1.51830       -0.06300
O          3.13060       -1.03850       -0.07490
H          0.52500        0.83860       -0.09140
H          2.84270        2.20260       -0.08400
H          5.37600        1.31650       -0.07010
H          6.33810       -1.19470       -0.05950
