17
2631	1
C          0.88080        0.09570       -0.59220
C          2.35900        0.24740       -0.37500
C          3.22940       -0.68540       -0.81380
C          4.72530       -0.61250       -0.63880
C          5.31840        0.42390       -0.01070
C          5.62290       -1.69530       -1.15840
C          5.20690       -2.79350       -1.80490
H          0.50860        0.95760       -1.18390
H          0.36680        0.08420        0.39130
H          0.62680       -0.84050       -1.13410
H          2.68650        1.13490        0.14660
H          2.81110       -1.54010       -1.32530
H          4.76930        1.25700        0.40190
H          6.39840        0.45350        0.10300
H          6.69420       -1.59080       -1.00400
H          4.16790       -3.00000       -2.01290
H          5.93960       -3.52000       -2.14170
