17
5134	2
C          0.89090        0.12940       -0.22430
C          2.38340        0.07450        0.11770
C          3.15300        1.32720       -0.34730
C          3.39610        1.26480       -1.85160
N          4.09900        0.03980       -2.18300
C          3.87810       -1.06990       -1.55780
N          2.96730       -1.12670       -0.45950
H          0.42760        1.03100        0.22940
H          0.37870       -0.76850        0.18220
H          0.73000        0.15420       -1.32190
H          2.47880        0.03900        1.22530
H          4.15380        1.32320        0.13990
H          2.63040        2.26000       -0.04380
H          4.00010        2.13630       -2.18070
H          2.43160        1.29460       -2.40030
H          4.37910       -1.97460       -1.88520
H          2.68810       -2.04840       -0.09200
