16
579	1
C          1.07050       -0.07140       -0.07870
C          2.57720        0.01620        0.16680
C          2.91810        1.34410        0.79590
C          3.74060        2.21360        0.20040
C          3.01120       -1.09200        1.09350
C          3.90230       -2.01480        0.71700
H          0.74850        0.74030       -0.76590
H          0.50690        0.02350        0.87510
H          0.81690       -1.04640       -0.54770
H          3.08830       -0.08460       -0.81830
H          2.48430        1.60200        1.75850
H          4.19210        1.98950       -0.76120
H          3.96560        3.16080        0.67970
H          2.58930       -1.14290        2.09390
H          4.34450       -1.99510       -0.27440
H          4.19350       -2.79930        1.40780
