16
4903	1
C          0.90640       -0.01910        0.06300
C          2.43320       -0.02680       -0.05110
C          3.16760        1.05440        0.72590
C          4.07160       -0.09910        1.14000
N          3.11710       -1.11200        0.66790
C          5.33890       -0.16060        0.32620
O          6.19740        0.69550        0.46480
H          0.50250        0.88780       -0.43340
H          0.58500       -0.02100        1.12590
H          0.49300       -0.91840       -0.43970
H          2.77160       -0.04480       -1.11410
H          2.56590        1.34750        1.61550
H          3.59500        1.90550        0.15300
H          4.29500       -0.14380        2.23030
H          2.53730       -1.38660        1.49730
H          5.49740       -0.96770       -0.38250
