16
4127	1
C          1.56910       -0.66890        1.18900
O          1.42080       -0.74040       -0.21060
C          2.61480       -1.23150       -0.77970
C          3.76150       -0.23370       -1.00060
C          2.82310       -2.73860       -0.82400
C          2.26800       -2.00440       -2.04670
F          3.22800       -2.09460       -3.04090
H          0.58560       -0.40470        1.62860
H          2.28060        0.13490        1.47560
H          1.86240       -1.64570        1.63280
H          4.12350        0.14410       -0.02300
H          3.39890        0.62490       -1.60390
H          4.62550       -0.70110       -1.51930
H          2.10150       -3.19940       -0.11690
H          3.91650       -2.91150       -0.73050
H          1.28380       -2.48610       -2.22890
