13
2614	3
N          0.81380        0.36700        1.79310
N          2.16350        0.62920        1.77640
C          2.91560        0.20690        0.82110
C          4.36910        0.49910        0.81970
N          5.10860        0.07000       -0.14170
N          4.95600        1.25190        1.87530
O          6.26970        1.52220        1.86800
H          0.23660        0.71760        2.57020
H          0.36690       -0.17640        1.03880
H          2.48790       -0.37030        0.00440
H          4.71570       -0.47820       -0.92160
H          4.37440        1.60870        2.64770
H          6.68070        0.80290        2.41270
