17
1299	1
C          0.97620       -0.09140        0.05510
C          2.50080       -0.07770        0.11510
F          3.05870       -0.03680       -1.15700
C          3.16740        0.98350        0.99660
C          4.22570       -0.06900        1.35130
C          3.18580       -1.13610        0.99120
N          3.70140       -2.32350        0.31110
H          0.61450        0.81550       -0.47330
H          0.54250       -0.10820        1.07770
H          0.63260       -0.99250       -0.49490
H          2.54090        1.15800        1.90380
H          3.49390        1.94020        0.53650
H          4.65830       -0.06770        2.37420
H          5.02000       -0.03610        0.56830
H          2.56800       -1.37730        1.88870
H          4.30070       -2.05740       -0.50320
H          2.89000       -2.87790       -0.04500
