14
847	1
F          2.76680        1.12790       -0.96010
C          2.51840        0.18380       -0.02410
C          1.74480        0.52780        1.01100
C          3.11710       -1.17790       -0.21640
C          4.64370       -1.11180       -0.24770
C          5.22800       -2.44970       -0.43430
C          5.70930       -3.53960       -0.58640
H          1.34490        1.53380        1.08090
H          1.49660       -0.17510        1.79800
H          2.73950       -1.59490       -1.15840
H          2.78960       -1.85990        0.57900
H          5.01920       -0.67970        0.68810
H          4.97680       -0.45330       -1.05900
H          6.13740       -4.50580       -0.72330
