14
2027	2
C          2.00920        0.51700        0.16660
N          2.74060       -0.75120        0.16510
N          3.80450       -0.71270        1.07050
C          4.92150        0.04290        0.85000
O          5.02050        0.71470       -0.16630
C          6.05930        0.05630        1.83640
F          5.81130       -0.75330        2.93080
H          1.12660        0.42880       -0.50080
H          2.63710        1.35380       -0.20240
H          1.64870        0.74690        1.19210
H          3.09800       -0.98710       -0.79010
H          3.74670       -1.30490        1.91100
H          6.22210        1.09480        2.19350
H          6.98380       -0.29880        1.33440
