13
3586	1
C          0.98910       -0.33670       -0.09380
C          2.47180       -0.00410        0.05200
F          3.19990       -0.96340       -0.62100
C          2.81340        1.36430       -0.49130
C          3.25690        2.35530        0.30490
C          2.67700        1.60470       -1.90240
N          2.57030        1.80660       -3.03520
H          0.79260       -1.33410        0.34370
H          0.68690       -0.37940       -1.15600
H          0.35900        0.40580        0.43100
H          2.74270       -0.07200        1.11920
H          3.37370        2.21520        1.37430
H          3.50680        3.33410       -0.10210
