11
5515	1
C          1.01900       -0.03700       -0.09510
C          2.51130       -0.01450       -0.09430
N          3.17930        1.16530       -0.09440
C          4.53350        1.16910       -0.09370
N          5.20780       -0.00670       -0.09280
N          4.54120       -1.16050       -0.09270
N          3.20870       -1.17800       -0.09340
H          0.61110        0.99610       -0.09570
H          0.65430       -0.56620        0.81000
H          0.65530       -0.56690       -1.00010
H          5.07420        2.10550       -0.09380
