11
6317	1
F          0.83440        0.04350        0.51990
C          2.13940        0.05960        0.05590
C          2.96570        1.17980        0.75610
C          3.67760        0.05510        1.34780
O          4.62240        0.05220        2.12080
C          2.98350       -1.06260        0.72720
F          3.82780       -1.72460       -0.14620
H          2.21830        0.07900       -1.05340
H          2.43230        1.75650        1.54170
H          3.65880        1.74470        0.09690
H          2.46500       -1.70290        1.47240
