12
1522	1
O          0.97650        0.09160        0.04840
C          2.39660        0.08460        0.04800
C          2.87790       -0.86970        1.01900
C          3.27460       -1.65620        1.81930
C          3.74330       -2.58530        2.76480
C          4.87670       -3.26850        2.57310
H          0.70120        0.73950       -0.62000
H          2.74560        1.09450        0.28410
H          2.73960       -0.17310       -0.95870
H          3.15760       -2.74180        3.66580
H          5.48020       -3.13400        1.68060
H          5.22330       -3.98340        3.31160
