16
3395	1
C          0.94010        0.03120       -0.08890
N          2.38550        0.01470        0.07250
C          3.06030        1.28270        0.16750
N          4.30000        1.43690       -0.14620
C          3.06380       -1.26160        0.14270
C          2.40810       -2.50250       -0.40440
N          4.19970       -1.39380        0.73930
H          0.53690        1.06640       -0.11980
H          0.46050       -0.49640        0.76260
H          0.65550       -0.46490       -1.04050
H          2.48430        2.17370        0.39830
H          4.89890        0.66980       -0.47690
H          2.23460       -2.38120       -1.49390
H          1.44000       -2.68500        0.10630
H          3.05230       -3.39480       -0.24930
H          4.68440       -0.62030        1.21140
