15
6310	1
C          0.92690       -0.09630        0.15930
C          2.42830        0.11760       -0.05050
C          3.14330        1.12810        0.90740
O          2.25880        1.73930        1.80880
C          3.96100       -0.02400        1.58040
C          3.24130       -0.87500        0.63880
O          3.31360       -2.08170        0.46730
H          0.37240        0.78760       -0.21920
H          0.68120       -0.24400        1.23340
H          0.59570       -0.99300       -0.40580
H          2.73130        0.20070       -1.11660
H          3.76970        1.85490        0.34180
H          2.82760        2.22470        2.46070
H          3.66790       -0.28880        2.61900
H          5.04660       -0.03310        1.34580
