13
1585	1
O          2.21470       -0.53110        1.15610
C          2.62930       -0.17940        0.06300
N          2.96280       -1.10070       -0.87120
C          3.45500       -0.91350       -2.17910
C          3.46580       -2.47270       -2.28380
C          2.92020       -2.51070       -0.82010
H          2.72960        0.87840       -0.15800
H          4.45970       -0.43890       -2.14590
H          2.69130       -0.40680       -2.80810
H          4.49850       -2.87780       -2.35340
H          2.71530       -2.84360       -3.01500
H          3.63960       -2.88860       -0.06150
H          1.86970       -2.86020       -0.72070
