17
116	1
C          3.04540        1.60680       -0.73030
C          2.76410        0.37850        0.09940
C          1.96730        0.46430        1.17760
C          3.36430       -0.95410       -0.30110
C          4.89640       -0.93330       -0.25510
N          5.43110       -2.23100       -0.65570
H          2.51970        2.50400       -0.33890
H          2.70430        1.43270       -1.77210
H          4.13140        1.82880       -0.73600
H          1.52490        1.41190        1.47000
H          1.74890       -0.41120        1.78140
H          3.02580       -1.20250       -1.33000
H          3.00880       -1.76090        0.37770
H          5.23830       -0.69060        0.77620
H          5.28750       -0.16180       -0.95150
H          5.12410       -2.95860        0.03020
H          6.47520       -2.18450       -0.62160
