16
64	1
C          0.92610       -0.23070        0.09280
C          2.44600       -0.10600       -0.01020
C          2.83350        0.45720       -1.37610
F          2.83330        0.79850        0.93960
C          3.10800       -1.46020        0.29790
C          4.55090       -1.42590        0.25600
C          5.74030       -1.39760        0.22150
H          0.44750        0.74320       -0.05670
H          0.63370       -0.57310        1.09140
H          0.52670       -0.93210       -0.64690
H          2.31600        1.40510       -1.56110
H          2.58120       -0.23700       -2.18410
H          3.90420        0.67960       -1.42520
H          2.73930       -2.21730       -0.40530
H          2.79850       -1.78400        1.29960
H          6.80530       -1.36700        0.19580
