18
1710	1
C          0.87580        0.21910        0.25100
C          2.35280        0.01350       -0.07470
C          3.09280       -0.63510        1.10630
C          4.59700       -0.83250        0.83010
C          5.29320       -1.41080        2.06530
C          4.81470       -1.73440       -0.31460
N          4.98970       -2.44240       -1.21330
H          0.35890        0.66480       -0.62480
H          0.76300        0.90510        1.11750
H          0.39430       -0.75300        0.49060
H          2.80950        0.99990       -0.30910
H          2.42820       -0.63670       -0.97240
H          2.62490       -1.61790        1.33980
H          2.97930        0.02530        1.99460
H          5.05870        0.15180        0.59740
H          4.85970       -2.39820        2.33660
H          5.17550       -0.72140        2.92840
H          6.38020       -1.53900        1.87170
