14
748	1
C          0.76970        0.53910        0.32740
C          2.10670        0.57180        0.21110
C          2.85290        1.13520       -0.97050
C          2.20690        1.66410       -2.03000
C          4.35090        1.13140       -1.01800
C          5.14670        0.64670       -0.05440
H          0.32470        0.11120        1.22030
H          0.09980        0.92070       -0.42940
H          2.66400        0.15760        1.03890
H          1.13010        1.71600       -2.09670
H          2.76500        2.06480       -2.87160
H          4.83750        1.55090       -1.89540
H          4.77030        0.20820        0.85760
H          6.22350        0.69030       -0.18360
