12
1424	2
N          0.97490        0.13670       -0.11940
C          2.39020        0.06270       -0.12350
C          3.12550        0.98610        0.50950
C          4.59690        0.91280        0.50760
N          5.28220        1.80810        1.12070
O          6.59660        1.75310        1.12590
H          0.42390       -0.58120       -0.61090
H          0.48500        0.90060        0.36960
H          2.87540       -0.75580       -0.64870
H          2.63600        1.80300        1.03350
H          5.10210        0.10150       -0.01210
H          7.10690        2.43040        1.58950
