13
1155	1
C          0.92010        0.00120        0.05760
C          2.44110        0.02730        0.05480
O          2.91110        0.17870       -1.26400
C          2.95220        1.12300        0.89160
C          3.37590        2.00950        1.58740
C          3.83970        3.06780        2.43860
O          4.43730        2.82170        3.47980
H          0.55250       -0.81060       -0.58490
H          0.51130        0.93860       -0.34710
H          0.51930       -0.14060        1.06990
H          2.82280       -0.93590        0.43420
H          2.60890        1.06270       -1.58350
H          3.64870        4.09140        2.09770
