20
6415	1
C          1.35040       -0.19360        0.53040
C          2.73300        0.43460        0.38770
C          3.53580       -0.23690       -0.73250
C          4.90940        0.43470       -0.90300
C          5.90560        0.23550        0.22610
C          6.87670       -0.03380       -0.90940
N          5.79580       -0.19540       -1.88940
H          0.79410        0.31600        1.34500
H          1.43870       -1.27260        0.77900
H          0.77770       -0.08140       -0.41500
H          3.27580        0.33180        1.35260
H          2.61140        1.51610        0.16060
H          2.98010       -0.14270       -1.69060
H          3.66270       -1.31840       -0.50420
H          4.81920        1.51650       -1.16330
H          5.70420       -0.73100        0.73980
H          6.11040        1.09690        0.89650
H          7.53330       -0.92200       -0.77440
H          7.44620        0.88890       -1.16910
H          5.58240       -1.22090       -1.93450
