15
4009	1
N          0.87020       -0.04780        0.25750
C          2.31700       -0.06270        0.08230
C          3.08650        0.95700        0.92090
N          4.06350       -0.06160        1.33360
C          3.09610       -1.08790        0.91570
C          2.67230       -0.03140       -1.35590
C          2.92730       -0.05800       -2.53740
H          0.62470       -0.15300        1.26520
H          0.45840       -0.85150       -0.27100
H          2.48440        1.27390        1.81020
H          3.51920        1.84170        0.40890
H          4.24960       -0.05870        2.36570
H          2.50220       -1.41490        1.80790
H          3.54030       -1.96640        0.40260
H          3.15200       -0.08270       -3.57460
