16
641	1
C          0.95350       -0.22510       -0.02620
C          2.38800       -0.36870       -0.53560
C          2.52530       -1.65650       -1.35680
O          2.68870        0.76430       -1.33350
C          4.07370        1.03970       -1.32590
C          4.30810        2.29270       -2.04390
N          4.49370        3.28340       -2.61260
H          0.67870       -1.09330        0.61060
H          0.24230       -0.16400       -0.87810
H          0.85920        0.69980        0.58170
H          3.03660       -0.43440        0.37040
H          1.86350       -1.62040       -2.24830
H          2.25090       -2.53710       -0.73760
H          3.57200       -1.79440       -1.69640
H          4.64310        0.24390       -1.85110
H          4.46930        1.17330       -0.29470
