16
6410	1
F          2.60910        3.61130       -1.36440
C          2.07910        2.33370       -1.36490
C          2.80000        1.44680       -0.35070
C          4.28570        1.27720       -0.69940
C          5.20260        2.44460       -0.41890
O          6.05000        1.65030        0.37990
C          5.13310        0.58030        0.33780
H          2.16620        1.90030       -2.38400
H          1.00290        2.39680       -1.09870
H          2.32210        0.44360       -0.36040
H          2.68300        1.87940        0.66720
H          4.50050        0.84730       -1.70380
H          4.74470        3.22950        0.22510
H          5.70880        2.82520       -1.33260
H          4.64200        0.49490        1.33400
H          5.59100       -0.36080       -0.03780
