15
2797	1
C          0.53520       -0.07440       -0.10440
C          2.02230        0.05670        0.11400
C          2.66560        1.00140        0.84160
C          1.94160        2.11760        1.57660
O          4.02900        0.90680        0.88860
C          4.92200        1.70760        1.53430
O          4.56980        2.67290        2.19270
H          0.33280       -0.02550       -1.19430
H         -0.10140        0.68100        0.38080
H          0.21000       -1.06800        0.26780
H          2.63380       -0.69850       -0.37310
H          0.84530        2.12430        1.48940
H          2.28940        3.09730        1.18810
H          2.16580        2.04700        2.66120
H          5.97920        1.47870        1.46000
