15
1286	1
C          1.43720        0.64570        0.04360
C          2.93170        0.34580       -0.01030
N          3.16900       -1.07060        0.28530
C          4.59900       -1.38150        0.22960
C          4.79940       -2.80490        0.52340
C          4.96040       -3.97600        0.75990
H          1.26340        1.72260       -0.15540
H          1.03020        0.39630        1.04590
H          0.89520        0.05140       -0.72250
H          3.45030        0.98090        0.74120
H          3.31790        0.60580       -1.02190
H          2.67150       -1.65360       -0.42880
H          5.15110       -0.78070        0.98380
H          5.01180       -1.15690       -0.77880
H          5.10510       -5.00260        0.97210
