10
49	1
C          0.99230       -0.01610        0.04560
N          2.42410       -0.05570       -0.16710
O          3.00060        0.89600       -0.91930
C          3.18290       -1.04490        0.37350
O          4.38900       -1.07130        0.18310
H          0.47180       -0.07190       -0.93330
H          0.71890        0.93630        0.54640
H          0.64170       -0.85960        0.67930
H          3.21660        1.62990       -0.28760
H          2.72700       -1.82200        0.98000
