15
858	1
N          1.07930       -0.05420        0.00820
C          2.53990       -0.03740        0.05580
C          3.17190        1.01710        0.97490
C          4.21760       -0.03850        1.35390
C          3.18710       -1.10030        0.95150
O          3.68730       -2.24600        0.30980
H          0.75610        0.81390       -0.47630
H          0.68110       -0.05450        0.97530
H          3.01810       -0.00360       -0.95150
H          2.51710        1.18460        1.86310
H          3.51570        1.97610        0.53260
H          4.61990       -0.04660        2.38900
H          5.03440       -0.00060        0.59450
H          2.53960       -1.34250        1.82670
H          4.23940       -1.95090       -0.45980
