10
4798	1
O          1.02850        0.07090       -0.06650
C          2.37400        0.05050       -0.06110
C          3.20790        1.14600       -0.06070
O          4.43910        0.69500       -0.05440
C          4.37710       -0.62000       -0.05100
O          5.45440       -1.42450       -0.04440
N          3.10800       -1.07500       -0.05500
H          0.54380        0.90820       -0.07070
H          2.92410        2.19000       -0.06470
H          6.34660       -1.05130       -0.04170
