9
1531	1
F          1.01100       -0.05360       -0.00870
C          2.39270       -0.05720       -0.00600
C          2.88520        1.05320       -0.82170
C          3.29090        1.96800       -1.49370
C          3.76530        3.03960       -2.28080
C          4.17000        3.95460       -2.95290
H          2.76060       -1.01610       -0.42550
H          2.76060        0.05630        1.03450
H          4.52510        4.75810       -3.54320
