6
43	1
F          0.87920        0.03580       -0.06280
C          2.26080        0.04250       -0.06720
F          2.72120        0.73610        1.03540
C          2.75540       -1.33390       -0.01910
N          3.14630       -2.42240        0.01930
H          2.62500        0.53510       -0.99220
