14
1487	1
C          0.78580       -0.03950        0.19280
C          2.28360        0.07830       -0.04200
C          2.70460       -0.66450       -1.27600
C          3.25810       -0.07850       -2.34690
C          3.64300       -0.83310       -3.48680
C          3.96960       -1.46730       -4.45210
H          0.50280        0.49690        1.10420
H          0.48290       -1.08570        0.30910
H          0.21990        0.38870       -0.64160
H          2.82120       -0.33610        0.81860
H          2.55600        1.13810       -0.10850
H          2.54930       -1.74210       -1.27140
H          3.42610        0.99410       -2.37160
H          4.25880       -2.03130       -5.30800
