16
503	1
C          1.21380        0.21980        0.29960
N          2.65740        0.43410        0.15560
C          3.08420        0.53490       -1.25520
C          2.57320        1.83220       -1.90480
C          4.61950        0.51010       -1.33580
F          5.11390       -0.67600       -0.82210
H          0.97370        0.05600        1.37150
H          0.88510       -0.67530       -0.27240
H          0.64190        1.11160       -0.02470
H          3.11970       -0.39990        0.58820
H          2.70090       -0.33520       -1.83560
H          2.93980        2.71870       -1.34390
H          1.46630        1.86140       -1.94120
H          2.93120        1.89970       -2.95440
H          5.05210        1.35950       -0.76450
H          4.94820        0.58920       -2.39420
