17
4108	1
C          2.63800        0.40770       -1.60770
C          2.61160        0.01150       -0.12680
C          3.20830        1.01100        0.89070
F          3.10880        0.64240        2.22310
C          4.36510        1.94040        0.56260
C          2.92160        2.48690        0.63600
N          2.79210        3.37050        1.79780
H          2.16910       -0.40200       -2.20580
H          3.67540        0.53500       -1.97630
H          2.05730        1.33530       -1.78550
H          3.15800       -0.94910       -0.01590
H          1.55290       -0.16530        0.16050
H          4.78940        1.63610       -0.41280
H          5.00970        1.99020        1.46670
H          2.75640        2.96580       -0.35100
H          3.09640        2.92760        2.69420
H          1.78360        3.62700        1.89120
