7
1136	1
O          1.18150        0.15210        0.01750
C          2.52550        0.11070        0.01500
N          3.33030        1.18540        0.01190
N          4.55940        0.68980        0.01030
N          4.49570       -0.63530        0.01240
O          3.24280       -0.98060        0.01530
H          0.71400        0.99890        0.01710
