14
799	1
C          2.86490        1.32330       -0.13880
O          2.32770        0.09220       -0.45530
C          3.07360       -1.00130       -0.76640
C          2.35170       -2.28120       -1.09160
N          4.36860       -0.92260       -0.77690
N          5.19350       -1.98410       -1.08140
H          2.04130        2.03580        0.07210
H          3.46290        1.71170       -0.99100
H          3.50590        1.24140        0.76500
H          1.25390       -2.12820       -1.02380
H          2.63800       -3.07490       -0.36990
H          2.59510       -2.60470       -2.12540
H          6.21390       -1.84910       -1.07020
H          4.82230       -2.91400       -1.32140
