18
4024	1
N          0.49320       -0.15880       -0.06860
C          1.93310        0.05550       -0.25650
C          2.79330        0.24450        1.00680
C          2.44100        1.53110        1.75750
O          1.12280        1.48970        2.23730
C          2.53050       -0.89070       -1.27990
C          2.39100        0.61740       -1.58930
H          0.35530       -1.01180        0.51980
H         -0.00820       -0.30810       -0.97470
H          3.87040        0.29430        0.73250
H          2.65550       -0.62810        1.68100
H          2.60930        2.41990        1.10460
H          3.12060        1.64200        2.62890
H          0.56460        2.01510        1.60680
H          1.88110       -1.38770       -2.03190
H          3.62570       -1.07650       -1.29820
H          1.49300        0.98480       -2.13030
H          3.25640        1.28550       -1.39070
