15
235	1
C          0.88800        0.03980       -0.08650
C          2.37790        0.15360        0.13080
C          2.85580        0.54510        1.32360
C          3.33200       -0.20630       -0.99290
C          3.23090        0.69370       -2.19830
O          4.01100        0.44460       -3.27110
O          2.47140        1.65180       -2.21010
H          0.31230        0.31230        0.82410
H          0.63580       -1.00750       -0.35420
H          0.55700        0.70640       -0.90730
H          2.18360        0.79460        2.13890
H          3.92460        0.62140        1.49820
H          3.12340       -1.25240       -1.30230
H          4.38650       -0.16110       -0.64300
H          3.97540        1.00740       -4.05760
