17
670	1
C          0.90840       -0.10720       -0.13750
C          2.43320       -0.06980       -0.18250
C          2.99300        0.92780        0.83820
C          4.52810        0.96210        0.78950
C          5.13140        1.92880        1.77530
O          6.47360        2.05660        1.83590
O          4.42280        2.59510        2.51700
H          0.53160       -0.83640       -0.88530
H          0.49040        0.89420       -0.37530
H          0.55940       -0.41860        0.87010
H          2.75470        0.22260       -1.20600
H          2.82340       -1.08770        0.03690
H          2.66490        0.62990        1.85870
H          2.59600        1.94260        0.61350
H          4.85510        1.25690       -0.23110
H          4.92370       -0.05270        1.01100
H          6.89060        2.66900        2.45860
