14
6343	1
C          1.15390       -0.02870        0.41410
N          2.51960        0.02180       -0.04450
C          3.48800        1.07230       -0.10920
C          4.50020       -0.02930       -0.74530
O          4.76240        0.19060       -2.10300
C          3.29700       -0.88220       -0.54900
O          3.04070       -2.05470       -0.77370
H          0.84220        0.97170        0.78060
H          1.06440       -0.76310        1.24180
H          0.48980       -0.33260       -0.42200
H          3.75330        1.41130        0.91620
H          3.15160        1.86680       -0.81140
H          5.37300       -0.32930       -0.12580
H          5.04880       -0.68440       -2.47330
