13
136	1
O          1.00760       -0.24410        0.17370
C          2.39200       -0.04660        0.24000
C          2.95740        0.04300       -1.17560
C          4.44620        0.27140       -1.13930
F          4.93430        1.38770       -0.53520
C          5.29740       -0.59870       -1.69240
H          0.69270       -0.30240        1.11300
H          2.86780       -0.90440        0.76720
H          2.60760        0.90100        0.78350
H          2.48130        0.89170       -1.71190
H          2.70980       -0.89520       -1.72040
H          4.93890       -1.49840       -2.18330
H          6.36560       -0.41140       -1.65480
