17
2351	1
C          1.35410       -0.36070        0.27290
C          2.87800       -0.23080        0.30960
C          3.37800        0.71270       -0.79660
C          4.88520        0.85960       -0.79460
C          5.46860        2.04850       -0.57910
C          5.71590       -0.29100       -1.05780
C          6.41960       -1.24410       -1.27630
H          1.01250       -1.02820        1.09190
H          1.02320       -0.79390       -0.69510
H          0.87340        0.63220        0.40600
H          3.32180       -1.24250        0.18620
H          3.17850        0.16760        1.30300
H          2.89460        1.70410       -0.65700
H          3.06790        0.31920       -1.78860
H          4.87720        2.93830       -0.38910
H          6.55220        2.14470       -0.59430
H          7.04370       -2.07600       -1.46730
