16
1569	1
C          1.14900        0.42750        0.25520
C          2.39570        0.00780        0.02860
C          3.14320        0.44280       -1.20060
C          3.55870        1.91210       -1.28970
C          4.84080        1.42810       -1.97190
C          4.62470        0.07390       -1.29110
H          0.62090        0.10410        1.14630
H          0.65180        1.09300       -0.44430
H          2.87260       -0.65880        0.74120
H          2.63360        0.14260       -2.14760
H          3.82650        2.28370       -0.27170
H          2.89960        2.62370       -1.83050
H          5.78830        1.97750       -1.78790
H          4.63840        1.31170       -3.06320
H          5.08430        0.12250       -0.27500
H          4.91530       -0.85070       -1.83320
