14
3656	1
C          0.72080       -0.07070       -0.19510
C          2.14810        0.41570       -0.24580
C          2.45250        1.50050       -0.98170
C          3.18980       -0.32400        0.53090
O          2.85870       -1.29030        1.20230
C          4.63890        0.08300        0.51920
F          5.14600       -0.00600       -0.76440
H          0.03860        0.55640       -0.80860
H          0.35880       -0.05100        0.85430
H          0.67010       -1.11220       -0.57660
H          1.68290        2.02630       -1.53870
H          3.46420        1.88430       -1.04150
H          5.23430       -0.58540        1.17760
H          4.74410        1.12270        0.89370
