15
110	1
C          0.85900       -0.02350        0.10270
C          2.38680       -0.10720       -0.01140
N          2.77510       -1.17980       -0.93190
C          2.96160        1.24020       -0.48180
C          4.42960        1.24890       -0.43360
C          5.63460        1.27500       -0.40050
H          0.45020       -0.98790        0.47200
H          0.40120        0.20930       -0.88210
H          0.57610        0.77010        0.82740
H          2.78860       -0.33600        1.00140
H          2.37690       -0.99750       -1.88270
H          2.39060       -2.09060       -0.58900
H          2.60690        2.05090        0.18880
H          2.62350        1.46680       -1.51620
H          6.69150        1.31380       -0.35760
