8
4554	1
F          0.89250       -0.05240       -0.08640
C          2.24730       -0.05160       -0.08060
C          3.06760        1.05100       -0.08030
N          4.34550        0.62610       -0.07360
C          4.24750       -0.72010       -0.07010
F          5.31500       -1.55420       -0.06310
O          2.99750       -1.12340       -0.07430
H          2.76290        2.08890       -0.08460
