13
4258	1
C          1.21000       -0.04290        0.25030
C          2.69430       -0.12700       -0.08620
O          3.37480        1.03490        0.40370
C          4.36630        0.59420        1.31900
C          4.20850       -0.85270        1.31990
O          4.87410       -1.63190        1.98230
O          3.24720       -1.23170        0.50920
H          0.76580        0.85460       -0.22970
H          1.06910        0.02860        1.34990
H          0.68480       -0.94690       -0.12440
H          2.83200       -0.20020       -1.18660
H          4.16860        1.00310        2.33220
H          5.37930        0.87070        0.95790
