16
2048	1
C          0.98700        0.29070        0.47330
N          2.42780        0.17450        0.42380
C          3.10330       -0.75950       -0.42710
N          2.44780       -1.55540       -1.20080
N          4.52500       -0.81830       -0.42660
O          5.24910       -0.02550        0.38470
C          5.72810        1.03020       -0.41010
H          0.69720        1.07760        1.20150
H          0.53860       -0.67170        0.79860
H          0.59380        0.57420       -0.52580
H          2.98500        0.79410        1.03000
H          1.42010       -1.56500       -1.25040
H          5.00680       -1.51150       -1.02040
H          6.32430        1.71100        0.23140
H          4.88860        1.62480       -0.83440
H          6.40160        0.65220       -1.21100
