11
2830	1
N          1.01970        0.07290       -0.15600
N          2.39010        0.18370       -0.17770
C          3.04200        0.63050        0.83960
C          4.51730        0.74860        0.81300
F          5.15240        1.22670        1.91560
C          5.24140        0.40020       -0.25920
F          6.59410        0.52660       -0.23630
H          0.52480       -0.28750       -0.98370
H          0.47610        0.34520        0.67730
H          2.51270        0.93010        1.74040
H          4.76650        0.01490       -1.15610
