17
1750	1
C          1.17070       -0.79170       -2.26200
O          2.57850       -0.81210       -2.20250
C          2.98740       -1.08830       -0.87860
C          4.52210       -1.13900       -0.81300
C          4.98190       -1.35040        0.63850
C          5.04860       -2.21560       -1.73750
O          5.72580       -3.14140       -1.31650
H          0.86920       -0.56460       -3.30510
H          0.74880        0.01270       -1.61920
H          0.74050       -1.78590       -2.00800
H          2.58610       -2.07120       -0.53620
H          2.63930       -0.27740       -0.19730
H          4.92530       -0.16210       -1.15890
H          4.60030       -2.31540        1.03700
H          4.60840       -0.52670        1.28360
H          6.09170       -1.35210        0.69230
H          4.82410       -2.16440       -2.79820
