12
1840	1
C          0.94950       -1.05730       -0.00090
C         -0.46440       -1.49410        0.06640
C         -1.32400       -0.43310        0.04310
C         -0.61120        0.86400       -0.03330
O          0.27380        1.04760        1.03870
C          0.82830        0.46960       -0.12740
H          1.42350       -1.48050       -0.91100
H          1.51760       -1.35310        0.90620
H         -0.78570       -2.52490        0.13650
H         -2.39920       -0.53450        0.10280
H         -0.80340        1.67390       -0.76690
H          1.68980        1.11960       -0.38620
