10
3010	1
F          1.08970       -0.23650        0.14570
C          2.44170       -0.22100        0.00240
C          3.07630       -1.48950       -0.44290
O          4.27820       -1.60320       -0.60700
C          3.08100        0.93940        0.27650
C          4.53960        1.18200        0.18850
O          4.97820        2.28560        0.46880
H          2.44000       -2.34850       -0.62830
H          2.46850        1.77980        0.59280
H          5.23870        0.41940       -0.11540
