13
6294	1
O          1.08470       -0.02680       -0.04680
C          2.48380        0.02020       -0.06330
C          3.11550        1.08260        0.84280
C          4.17340        0.04300        1.21290
F          5.19760        0.08230        0.27560
C          3.15550       -1.02960        0.82260
F          3.66610       -2.13430        0.16360
H          0.78150        0.83970       -0.42240
H          2.93690        0.02430       -1.08310
H          2.45980        1.24250        1.73220
H          3.44150        2.04490        0.39430
H          4.58340        0.04160        2.24500
H          2.51420       -1.27830        1.70090
