19
6300	1
C          0.96780        0.13280        0.24520
C          2.45940       -0.02900       -0.04130
O          3.23580        1.02850        0.48150
C          4.07260        0.11210        1.15750
C          5.47060        0.10860        0.52780
C          3.15980       -1.05890        0.82260
C          3.71190       -2.28960        0.09730
H          0.57530        1.00490       -0.31820
H          0.78860        0.29990        1.32890
H          0.42410       -0.77940       -0.07850
H          2.68780       -0.14060       -1.12650
H          4.10750        0.30520        2.25300
H          5.41900       -0.01760       -0.57400
H          6.07930       -0.70980        0.96620
H          5.97090        1.07640        0.74080
H          2.55870       -1.30750        1.72660
H          4.28110       -2.01610       -0.81470
H          2.86770       -2.94360       -0.20530
H          4.37520       -2.85690        0.78300
