15
3949	1
N          0.96130       -0.05540        0.16310
C          2.41310       -0.06470       -0.06210
C          2.77510       -0.09910       -1.55420
F          4.14680       -0.11940       -1.74240
C          3.13240        0.95280        0.80010
O          3.58900       -0.05140        1.68160
C          3.11040       -1.07090        0.82950
H          0.55180        0.80000       -0.27800
H          0.73050       -0.03010        1.18420
H          2.36040        0.79830       -2.05980
H          2.33690       -1.00600       -2.02150
H          2.45870        1.68150        1.30190
H          4.01470        1.41510        0.30340
H          2.42140       -1.77070        1.35170
H          3.98320       -1.56700        0.34860
