14
1389	1
F          1.10330       -0.01860       -0.32070
C          2.46690       -0.00750       -0.08690
F          3.14880        0.10180       -1.29040
C          2.90260        1.08240        0.86100
C          4.31500        0.61060        1.17090
N          4.25040       -0.85560        1.25610
C          2.94720       -1.22810        0.68090
H          2.29020        1.01920        1.79030
H          2.84030        2.11550        0.45820
H          4.74470        1.08720        2.07880
H          4.97150        0.86220        0.30840
H          4.26980       -1.15450        2.25900
H          2.23080       -1.41900        1.51500
H          3.00240       -2.14300        0.05460
