15
3528	1
C          1.22640       -0.33530        0.06620
O          2.59070       -0.14630        0.13680
C          3.18740        0.63880        1.07110
O          2.51680        1.21890        1.91540
C          4.69090        0.77960        1.06650
C          5.19230        1.33970       -0.26870
O          5.13570        1.58020        2.13460
H          0.99690       -1.01540       -0.77950
H          0.71340        0.63510       -0.10640
H          0.85370       -0.79580        1.00620
H          5.12670       -0.23380        1.19810
H          4.77610        2.35420       -0.44820
H          4.88930        0.67500       -1.10570
H          6.30100        1.40430       -0.25620
H          4.80020        2.50320        1.98370
