16
2931	2
C          2.97640        1.08510       -0.03390
N          2.34780       -0.18940       -0.30960
C          3.08320       -1.40330       -0.51750
C          2.30690       -2.66840       -0.79790
C          4.44050       -1.42080       -0.46480
C          5.24780       -2.64440       -0.67170
O          6.46470       -2.58320       -0.60930
H          2.19970        1.86970        0.08810
H          3.63720        1.37450       -0.87810
H          3.56390        1.02460        0.90650
H          1.31820       -0.21740       -0.35740
H          1.21390       -2.47550       -0.80530
H          2.51450       -3.42500       -0.01190
H          2.58800       -3.07540       -1.79220
H          4.98730       -0.50670       -0.26270
H          4.78120       -3.60080       -0.87880
