10
4397	2
N          1.16550        0.03830       -0.24940
C          2.41980        0.07540        0.01730
N          3.23430       -1.04300        0.23510
C          4.45340       -0.53510        0.47590
O          5.43910       -1.21430        0.71310
N          4.45880        0.88440        0.42180
C          3.25860        1.26250        0.15040
H          0.67050       -0.86250       -0.32010
H          2.96550       -2.03770        0.21630
H          2.95830        2.29650        0.04600
