13
2553	1
N          1.01000       -0.07670        0.22050
C          2.39800       -0.02630       -0.08050
C          2.70340       -0.74660       -1.39270
C          3.22810       -0.19030       -2.51640
F          3.41400       -0.97230       -3.59490
C          2.86450        1.36110       -0.04770
C          3.24980        2.50380       -0.02360
H          0.65090       -1.06500        0.15600
H          0.48350        0.45430       -0.52670
H          2.95530       -0.60060        0.71600
H          2.44390       -1.78940       -1.42330
H          3.52800        0.83240       -2.62900
H          3.55280        3.51180        0.07740
