13
4789	1
C          0.91770        0.07980        0.03730
C          2.40960        0.05430        0.03880
C          3.25310        1.14530        0.03830
O          4.48300        0.69160        0.04000
C          4.41740       -0.62080        0.04160
N          5.54760       -1.46540        0.04380
N          3.14700       -1.07150        0.04090
H          0.54530        1.12610        0.03570
H          0.53720       -0.43730        0.94260
H          0.53890       -0.43950       -0.86740
H          2.97490        2.19100        0.03670
H          6.49470       -1.06100        0.04430
H          5.43030       -2.48870        0.04500
