15
1693	1
C          1.18350        0.22890       -0.24840
N          2.64240        0.28540       -0.05360
C          3.36620       -0.72050       -0.88330
C          3.33240        0.68790       -1.29270
C          4.59390        1.50360       -1.00640
O          4.26260        2.85340       -0.83420
H          0.74700       -0.46360        0.50100
H          0.86410       -0.10970       -1.26110
H          0.75650        1.23820       -0.07130
H          2.67050       -1.44080       -1.36760
H          4.24070       -1.08170       -0.30170
H          2.67090        0.96130       -2.14570
H          5.27390        1.41880       -1.87950
H          5.15800        1.13130       -0.11980
H          3.87860        2.93640        0.07760
