20
545	1
C          0.79150       -0.30160       -0.20820
C          2.24250        0.03260       -0.56770
O          2.23800        0.95890       -1.62070
C          2.97170        0.62010        0.65660
C          4.50400        0.77500        0.53410
C          5.01600        1.78560       -0.50430
N          4.83330        1.30780       -1.87020
H          0.27470       -0.73740       -1.08990
H          0.24720        0.61460        0.10700
H          0.75740       -1.04480        0.61670
H          2.76220       -0.90830       -0.86600
H          2.10090        0.44240       -2.45770
H          2.81350       -0.07780        1.50850
H          2.51300        1.59570        0.93180
H          4.97840       -0.21510        0.35880
H          4.85200        1.13760        1.52640
H          6.10590        1.93620       -0.33480
H          4.50710        2.76380       -0.36410
H          5.38650        0.43050       -2.00580
H          5.20870        2.02810       -2.52830
