13
5186	1
C          0.99370       -0.12060       -0.08160
C          2.32910       -0.06590       -0.07730
C          3.03300        1.26450       -0.08900
N          4.47370        1.10250       -0.08190
N          5.07770       -0.13780       -0.06650
C          4.39620       -1.23140       -0.05740
O          3.04220       -1.21560       -0.06250
H          0.40140        0.78970       -0.09350
H          0.48510       -1.07970       -0.07320
H          2.73210        1.84660        0.80840
H          2.73880        1.82730       -1.00080
H          5.06650        1.94490       -0.08870
H          4.91600       -2.18290       -0.04530
