14
145	1
C          2.40920       -1.06330        0.54620
O          3.67860       -0.46980        0.39650
C          3.62620        0.48880       -0.63760
C          4.99260        1.08140       -0.82390
C          6.14920        0.20800       -1.20830
O          5.16290        2.28130       -0.66800
H          2.46720       -1.80790        1.36650
H          2.10870       -1.61420       -0.37270
H          1.64270       -0.31280        0.84200
H          2.91350        1.30510       -0.37590
H          3.32980        0.01970       -1.60340
H          5.93700       -0.28560       -2.17960
H          6.30910       -0.56850       -0.43150
H          7.07850        0.80860       -1.30790
