17
3471	1
C          0.91070       -0.13140        0.43310
C          2.40350        0.05350        0.11770
O          2.64070       -0.28770       -1.22390
C          2.99260        1.43280        0.42820
C          2.24000        2.45860        0.87440
C          4.48030        1.63990        0.24230
O          4.83780        1.45800       -1.10200
H          0.60930       -1.17730        0.21130
H          0.28830        0.54860       -0.18680
H          0.71540        0.06260        1.50930
H          2.94870       -0.67600        0.75470
H          2.17560        0.38540       -1.78760
H          1.17260        2.36650        1.03090
H          2.69110        3.42210        1.09100
H          5.03650        0.93790        0.90620
H          4.79870        2.66160        0.54210
H          5.20880        0.54110       -1.18650
