15
3547	1
C          0.94060        0.48570       -0.12360
N          2.24880        0.03370       -0.56740
N          2.81420        0.58460       -1.71500
C          2.92620       -0.92470        0.13120
O          2.43350       -1.41250        1.14020
C          4.28640       -1.39310       -0.33060
O          4.79750       -2.39160        0.51200
H          0.53940        1.26400       -0.80750
H          1.01580        0.92120        0.89560
H          0.22940       -0.36750       -0.10940
H          2.91050        1.61610       -1.57300
H          2.17040        0.40440       -2.51920
H          4.99450       -0.53490       -0.38030
H          4.19930       -1.81260       -1.35480
H          5.14860       -1.93120        1.31880
