12
5920	1
O          0.97330       -0.07980       -0.18460
C          2.36930       -0.07950       -0.06760
C          2.88960       -1.34700        0.66440
O          3.48980       -0.87420        1.81660
C          3.41170        0.45410        1.91160
C          2.79120        0.97690        0.88730
F          2.57100        2.30770        0.72620
H          0.75570       -0.75230       -0.88130
H          2.86640        0.09290       -1.04870
H          3.64080       -1.87950        0.04290
H          2.06120       -2.03690        0.93500
H          3.81550        1.02060        2.74010
