15
4906	1
C          0.93510       -0.07320        0.34990
C          2.37580        0.08810       -0.13690
C          3.18470        1.10440        0.64680
C          3.95200       -0.12920        1.08190
O          3.17990       -0.99010        0.27940
C          5.39640       -0.12570        0.67230
O          6.17870        0.65250        1.19350
H          0.35760        0.84700        0.12120
H          0.90550       -0.25820        1.44540
H          0.46210       -0.93240       -0.17000
H          2.45410        0.24260       -1.23650
H          2.64250        1.58390        1.49130
H          3.75960        1.76200       -0.04290
H          3.79720       -0.36940        2.15790
H          5.75140       -0.81880       -0.08360
