17
317	1
C          0.95260        0.08190        0.16770
C          2.48420        0.00030        0.09880
C          2.98860       -1.04540        1.10700
C          2.93220       -0.30330       -1.35240
C          4.45070       -0.27100       -1.53710
F          2.44940       -1.53620       -1.76110
H          0.62730        0.34770        1.19630
H          0.49060       -0.88970       -0.11070
H          0.57750        0.86680       -0.52330
H          2.88750        0.99460        0.39350
H          2.60840       -2.05710        0.84970
H          2.64070       -0.78580        2.12970
H          4.09630       -1.07210        1.13750
H          2.50650        0.47780       -2.02010
H          4.94820       -1.06790       -0.94820
H          4.85410        0.71850       -1.23410
H          4.69580       -0.43900       -2.60720
