15
2157	1
N          0.87560       -0.26790       -0.53600
N          2.21240       -0.22730       -0.15180
C          3.03580        0.90780       -0.45700
N          2.52670        1.94100       -1.03650
N          4.42860        0.93370       -0.12800
C          5.13920       -0.15960        0.45320
C          6.44470       -0.05350        0.71780
H          0.45990       -1.16640       -0.20070
H          0.84130       -0.27610       -1.58030
H          2.59280       -1.02390        0.37310
H          1.53250        1.99590       -1.29650
H          4.95440        1.79380       -0.34770
H          4.65180       -1.09460        0.68590
H          6.98530        0.86260        0.50010
H          6.97930       -0.89020        1.15500
