20
1541	1
C          1.41780        1.08250        1.00540
C          2.89710        0.84100        0.71890
C          3.08690        0.05040       -0.58210
C          4.57370       -0.18820       -0.88310
F          5.14670       -0.91260        0.15050
C          4.74430       -0.95320       -2.20330
C          6.21750       -1.17570       -2.53820
H          1.31040        1.65640        1.95000
H          0.88280        0.11510        1.11420
H          0.95470        1.66520        0.18080
H          3.33740        0.27800        1.57030
H          3.41130        1.82350        0.63690
H          2.63340        0.62300       -1.42130
H          2.56650       -0.92930       -0.49760
H          5.08930        0.79420       -0.96440
H          4.27890       -0.37360       -3.03040
H          4.23740       -1.94040       -2.13290
H          6.74180       -0.20150       -2.63730
H          6.30100       -1.72350       -3.50040
H          6.71120       -1.77720       -1.74580
