12
642	1
O          1.16890        0.12420        0.38820
C          2.56950        0.05470        0.34740
C          3.04170       -0.86980       -0.74230
O          2.23190       -1.45890       -1.44440
C          4.51800       -1.06310       -0.96200
O          4.76610       -1.93920       -2.02920
H          0.85730       -0.68670        0.86930
H          2.96830       -0.27700        1.33290
H          2.96570        1.07400        0.15680
H          4.99900       -1.44190       -0.03180
H          4.98200       -0.08260       -1.19820
H          4.64510       -2.85950       -1.67630
