14
2482	1
O          1.30100       -0.23820       -0.18670
C          2.55840        0.27680        0.16890
C          2.42740        1.74930        0.45860
C          3.10190        2.66480       -0.24360
C          3.11490       -0.41390        1.39330
C          2.46610       -1.38440        2.05130
F          3.03600       -1.95590        3.14400
H          1.13130        0.04120       -1.12450
H          3.28100        0.08720       -0.65910
H          1.76680        2.07450        1.25750
H          3.76930        2.37270       -1.04860
H          2.98590        3.71840       -0.01150
H          4.09230       -0.10550        1.75440
H          1.48850       -1.72920        1.73210
