14
148	1
C          1.04500        0.05290        0.03620
N          2.51150        0.04230       -0.07060
C          3.16180        1.08270        0.73920
C          4.11060        0.07090        1.35600
C          3.15090       -0.96140        0.79230
H          0.64350        0.94020       -0.49710
H          0.69380        0.08250        1.09220
H          0.63410       -0.85700       -0.44980
H          2.47660        1.48980        1.52120
H          3.66260        1.87380        0.14100
H          4.26120        0.09870        2.45610
H          5.04230        0.05020        0.74760
H          2.46170       -1.32010        1.59420
H          3.64320       -1.78780        0.23610
