17
2894	1
C          1.13830       -0.32590        0.57980
O          2.49020       -0.22920        0.33950
C          3.08900       -0.90900       -0.66810
C          4.42130       -0.79890       -0.88620
C          5.27840        0.08250       -0.01570
O          5.04570       -1.47420       -1.89490
C          4.43920       -2.32660       -2.79640
H          0.87600        0.31380        1.44730
H          0.86510       -1.37730        0.81420
H          0.56570        0.02080       -0.30720
H          2.48100       -1.54770       -1.30230
H          4.71030        0.60200        0.78370
H          5.76690        0.85310       -0.64770
H          6.06400       -0.53590        0.46610
H          5.20690       -2.72110       -3.49310
H          3.67450       -1.78040       -3.38900
H          3.97440       -3.18370       -2.26390
