17
513	1
C          1.05610        0.32680       -0.15550
C          2.45860       -0.27710       -0.01370
C          2.70900       -0.79200        1.41480
N          2.61730        0.29270        2.38830
C          2.61280       -1.41960       -0.98950
C          3.54610       -1.40400       -1.94670
H          0.92910        1.18500        0.53730
H          0.27550       -0.43170        0.06960
H          0.90500        0.69820       -1.19160
H          3.20500        0.51880       -0.23660
H          3.72440       -1.24580        1.47190
H          1.96290       -1.57710        1.67040
H          3.36880        0.99330        2.19210
H          2.79200       -0.10110        3.34100
H          1.95110       -2.27810       -0.91060
H          4.22530       -0.56360       -2.05260
H          3.63340       -2.24100       -2.63150
