17
6330	1
C          0.83930       -0.12740        0.38830
C          2.27520        0.01030       -0.11520
C          3.14330        1.07610        0.63040
C          4.05980       -0.04200        1.22630
C          5.49880       -0.04650        0.71270
C          3.18820       -0.95150        0.49160
O          3.21520       -2.16960        0.40820
H          0.24380        0.74390        0.04450
H          0.80280       -0.17070        1.49870
H          0.38610       -1.05440       -0.02200
H          2.37980        0.01180       -1.22170
H          2.58890        1.61020        1.43410
H          3.67100        1.73890       -0.09120
H          3.95890       -0.19570        2.32250
H          5.53350        0.06350       -0.39310
H          5.99370       -0.99980        0.99430
H          6.05640        0.79530        1.17350
