14
4539	1
C          1.07490       -0.02650        0.04830
C          2.56650       -0.02140        0.05390
C          3.39320        1.07950        0.05380
N          4.66930        0.65010        0.05980
C          4.56850       -0.69660        0.06320
C          5.73770       -1.62120        0.07030
O          3.31600       -1.09470        0.05970
H          0.68120        1.01190        0.04390
H          0.70380       -0.55050        0.95340
H          0.71050       -0.55560       -0.85650
H          3.09460        2.11940        0.04970
H          6.68620       -1.04390        0.07220
H          5.70610       -2.26480       -0.83320
H          5.69940       -2.25960        0.97710
