12
2448	1
O          0.84250        0.28560       -0.68920
N          2.10390        0.47910       -0.37000
C          2.99720        0.58520       -1.28630
C          4.43590        0.80450       -0.91930
F          5.19340       -0.24660       -1.40430
C          4.95000        2.11810       -1.50330
F          4.86700        2.10190       -2.88490
H          0.17480        0.20670        0.00510
H          2.71560        0.51400       -2.33430
H          4.54570        0.83960        0.18700
H          6.01140        2.26380       -1.21090
H          4.35560        2.97080       -1.11050
