13
4710	1
C          1.22590        0.07250        0.02600
C          2.71130       -0.04960        0.02050
N          3.57080        0.98950        0.01880
N          4.77970        0.44940        0.01370
N          4.65810       -0.86770        0.01240
C          5.76970       -1.80570        0.00720
N          3.38340       -1.21490        0.01660
H          0.92820        1.14210        0.02850
H          0.81610       -0.42010        0.93220
H          0.80950       -0.41780       -0.87840
H          6.73570       -1.25740        0.00440
H          5.71360       -2.44440       -0.89900
H          5.72020       -2.44670        0.91200
