12
705	1
C          0.92980        0.24010       -0.37320
C          2.30220       -0.31470        0.00870
C          2.28280       -1.13060        1.28150
O          1.24100       -1.29470        1.89960
C          3.52420       -1.74020        1.79410
O          4.58050       -1.59460        1.19960
H          1.01400        0.82650       -1.31240
H          0.54640        0.90730        0.42810
H          0.20970       -0.59000       -0.53690
H          3.00470        0.53640        0.13930
H          2.66930       -0.95500       -0.82200
H          3.50170       -2.32440        2.70850
