16
5127	1
N          1.14050        0.04710        0.73450
C          2.45960       -0.00220        0.10660
C          2.69510        1.21210       -0.79220
O          3.96680        1.11970       -1.33660
C          4.44010       -0.03810       -1.87680
C          3.82300       -1.21130       -1.64210
C          2.60900       -1.28190       -0.74340
H          1.07540        0.90650        1.32720
H          1.03410       -0.77770        1.36890
H          3.25070        0.00910        0.89220
H          2.60910        2.16140       -0.22220
H          1.94010        1.22030       -1.60960
H          5.32010       -0.01000       -2.51090
H          4.18200       -2.11370       -2.12710
H          2.69420       -2.14380       -0.04730
H          1.72600       -1.44360       -1.39860
