15
5106	1
N          1.26160        0.02950        0.65260
C          2.32850       -0.03890       -0.05890
N          2.82310       -1.30130       -0.50770
C          4.07710       -1.39510       -1.23530
C          4.89840       -0.09950       -1.11810
C          3.98290        1.09720       -1.35290
O          2.98910        1.09950       -0.39040
H          0.74110       -0.81980        0.91690
H          2.24810       -2.14880       -0.38850
H          3.84010       -1.61710       -2.29810
H          4.69460       -2.22590       -0.83200
H          5.74850       -0.12020       -1.83310
H          5.30620       -0.01210       -0.08660
H          3.52790        1.02100       -2.36510
H          4.55210        2.04840       -1.29290
