19
4201	1
C          1.03690        0.03700       -0.03420
C          2.56710        0.09690       -0.03870
C          3.12140        1.22580        0.82990
C          4.53290        0.74070        1.10100
N          5.40240        0.89360       -0.07440
C          4.23920       -0.72750        1.40040
N          3.20450       -1.14580        0.44100
H          0.61800        0.99140       -0.41840
H          0.65640       -0.13460        0.99540
H          0.69030       -0.79200       -0.68690
H          2.90050        0.25580       -1.08690
H          2.58220        1.22130        1.80630
H          3.03390        2.24290        0.39140
H          5.01120        1.27400        1.95220
H          5.09610        0.30650       -0.88180
H          6.36690        0.58020        0.18150
H          3.80570       -0.78380        2.42750
H          5.13900       -1.37790        1.37470
H          2.53170       -1.78740        0.92360
