16
1597	1
C          1.43360        0.60560       -0.13840
O          2.79520        0.49970       -0.48650
C          3.11850       -0.85690       -0.70180
C          4.58190       -0.94770       -1.14830
C          5.54910       -0.77100        0.00470
C          5.40940       -2.13340       -0.68840
H          1.19930        1.67680        0.02990
H          1.21560        0.07180        0.81320
H          0.77560        0.25460       -0.96420
H          2.50620       -1.27940       -1.53010
H          2.95260       -1.45140        0.22730
H          4.93400       -0.34900       -2.01610
H          5.23320       -0.96510        1.05210
H          6.59310       -0.45750       -0.20730
H          4.70810       -2.89010       -0.27560
H          6.06220       -2.37960       -1.55290
