15
1452	1
C          1.28120       -0.33570        0.03780
N          2.71520       -0.20700        0.01660
N          3.29650        0.85040       -0.64430
C          4.57430        1.00000       -0.67710
C          5.17730        2.15970       -1.40970
N          5.95960        2.97720       -0.49050
H          0.98900       -1.24320        0.60740
H          0.89800       -0.42130       -1.00050
H          0.83270        0.55610        0.52340
H          3.29640       -0.91260        0.49650
H          5.22790        0.28940       -0.17720
H          4.38360        2.78150       -1.88190
H          5.84050        1.76690       -2.20960
H          5.32190        3.38940        0.22880
H          6.38290        3.76730       -1.02900
