14
2164	2
C          0.95190       -0.00650       -0.41210
N          2.36950       -0.05930       -0.12710
C          3.14310        1.06120       -0.13180
O          2.64080        2.15030       -0.38180
N          4.47440        0.96670        0.14160
C          5.32760        2.10970        0.14920
N          6.57950        1.98830        0.41010
H          0.51680       -1.02670       -0.35510
H          0.78440        0.39510       -1.43430
H          0.43880        0.64110        0.33040
H          2.79710       -0.97400        0.08400
H          4.88070        0.04140        0.34980
H          4.92970        3.09690       -0.06550
H          6.99580        1.06890        0.61890
