19
384	1
C          2.68790        0.38670        1.64890
C          2.67960       -0.02080        0.17130
C          3.29100       -1.41960       -0.14630
C          2.51530       -2.55110        0.56210
O          3.23510       -1.63170       -1.53810
C          4.77650       -1.49810        0.27580
O          5.53490       -0.48980       -0.33900
H          2.22830        1.39240        1.75060
H          3.72200        0.44720        2.04380
H          2.09470       -0.31940        2.26430
H          3.23350        0.75470       -0.40130
H          1.62430       -0.00070       -0.17930
H          1.44330       -2.53040        0.27120
H          2.58410       -2.46380        1.66610
H          2.93230       -3.54020        0.27430
H          2.28140       -1.62290       -1.81640
H          5.20150       -2.49840        0.02560
H          4.88460       -1.39560        1.37540
H          5.76200       -0.81440       -1.24920
