18
1447	1
C          0.77620        0.15680       -0.18900
C          2.28560        0.09090        0.10310
C          2.67940        0.08070        1.58800
C          3.14890       -0.82440       -0.75010
N          2.56710       -1.46330       -1.93280
C          3.23520        0.71780       -0.92440
O          4.33070        1.31960       -0.29550
H          0.27380       -0.73260        0.24570
H          0.52960        0.21550       -1.26650
H          0.35790        1.06720        0.28820
H          2.18130       -0.77220        2.09600
H          2.34470        1.02490        2.06560
H          3.77460       -0.02340        1.74110
H          4.11830       -1.22340       -0.38150
H          1.96040       -0.83670       -2.50660
H          2.02380       -2.30090       -1.62620
H          2.62430        1.34790       -1.60670
H          5.10410        1.12940       -0.88530
