10
5486	1
F          0.87360        0.03420        0.05730
C          2.22910        0.05830        0.06040
C          2.91880        1.26970        0.06360
N          4.27760        1.27360        0.06660
C          4.97680        0.10720        0.06650
N          4.31960       -1.08330        0.06340
C          2.96140       -1.12780        0.06030
H          2.37640        2.20590        0.06370
H          6.05790        0.12650        0.06890
H          2.45270       -2.08260        0.05780
