15
5156	1
C          0.81710       -0.06200        0.00030
C          2.15820       -0.06960        0.01030
C          2.89840        1.23970        0.01940
N          4.33990        1.09430        0.02980
N          4.98580       -0.12420        0.03120
C          4.37480       -1.25780        0.02350
C          2.88210       -1.38490        0.01200
H          0.26830        0.87540       -0.00110
H          0.25760       -0.99300       -0.00640
H          2.59680        1.81440        0.92160
H          2.61030        1.81950       -0.88390
H          4.91180        1.95110        0.03650
H          4.96500       -2.16820        0.02540
H          2.57850       -1.96210        0.91170
H          2.59200       -1.95700       -0.89540
