16
1640	1
C          0.93620        0.10570       -0.12890
C          2.43480        0.13050       -0.07520
C          3.11310        1.27840        0.08000
C          4.61890        1.29810        0.14220
C          5.19220        0.74170       -1.15900
C          5.35270        2.21320       -0.82950
H          0.61270       -0.32450       -1.09940
H          0.49820        1.12190       -0.02730
H          0.55160       -0.53040        0.69510
H          2.97310       -0.80910       -0.16440
H          2.57810        2.21870        0.17870
H          5.13210        0.72730        0.94560
H          4.59870        0.74360       -2.09920
H          6.23080        0.34800       -1.17060
H          4.60770        2.94620       -1.20930
H          6.24270        2.55980       -0.26260
