17
711	1
N          0.92100       -1.09260        0.24150
C          1.12240        0.35340        0.21980
C          2.58990        0.71010        0.47540
N          3.44280        0.11290       -0.54250
C          4.29830        0.82440       -1.45120
N          5.06650        0.08590       -2.38610
N          4.39540        2.11030       -1.45300
H         -0.08810       -1.29020        0.05170
H          1.14120       -1.45490        1.19770
H          0.48720        0.82710        1.00130
H          0.81700        0.75420       -0.77120
H          2.89600        0.32490        1.47160
H          2.66100        1.80800        0.52140
H          3.43570       -0.91590       -0.61200
H          5.00940       -0.94200       -2.41170
H          5.68790        0.57110       -3.04990
H          3.88560        2.73580       -0.82240
