14
970	1
O          1.05910        0.01050        0.16380
C          2.45310       -0.04440        0.03090
C          3.04180       -1.30060        0.69370
C          3.23880       -0.94710        2.17220
C          3.48910        0.51360        2.07830
C          3.04960        1.01860        0.88120
H          0.69420       -0.69910       -0.42660
H          2.75690        0.02200       -1.03830
H          4.07410       -1.38700        0.27820
H          2.53220       -2.26380        0.47970
H          4.08370       -1.53120        2.59570
H          2.31530       -1.09340        2.77220
H          3.85780        1.13200        2.88590
H          3.03730        2.07560        0.65040
