18
70	1
C          1.19580        0.09210        0.22820
N          2.61250       -0.27340        0.26120
C          3.07160       -0.68370       -1.07350
C          4.58690       -0.97040       -1.10830
C          5.41110        0.27270       -0.74440
N          4.93020       -2.09860       -0.23840
H          0.86450        0.37620        1.24910
H          0.57440       -0.76310       -0.11830
H          1.03610        0.96470       -0.44070
H          2.71340       -1.07560        0.92440
H          2.85950        0.12720       -1.80630
H          2.52320       -1.59570       -1.40120
H          4.83960       -1.25390       -2.15440
H          5.19480        0.60170        0.29390
H          5.17610        1.10500       -1.44120
H          6.49520        0.04590       -0.82570
H          4.83740       -1.83000        0.76770
H          5.92760       -2.36790       -0.40130
