13
2447	1
N          1.17250        0.38840       -1.07590
N          2.53880        0.23490       -1.06050
C          3.08470       -0.85430       -0.64570
C          4.57900       -0.99480       -0.63820
F          5.00770       -1.21510        0.65840
C          5.01860       -2.15570       -1.52700
F          4.48270       -3.34770       -1.07090
H          0.76290        1.27070       -1.41310
H          0.54770       -0.36710       -0.75500
H          2.47030       -1.68030       -0.29510
H          5.05130       -0.06030       -1.01370
H          6.12620       -2.23390       -1.51410
H          4.68930       -1.98280       -2.57410
