9
69	1
C          1.03030        0.01580       -0.09030
C          2.52400        0.01250       -0.09060
N          3.16870        1.11800        0.00760
O          4.48420        1.12370        0.00810
H          0.65190       -1.02360       -0.18250
H          0.65530        0.61480       -0.94660
H          0.65530        0.45460        0.85820
H          3.05990       -0.92970       -0.17420
H          4.96400        1.95940        0.08220
