10
96	1
F          3.13400        0.26360        1.23180
C          2.54620        0.27910       -0.02110
F          2.78950        1.49870       -0.62810
C          3.09280       -0.85880       -0.88080
C          4.57620       -0.73220       -1.06810
O          5.04900       -0.61690       -2.18750
H          1.44950        0.15310        0.09940
H          2.58180       -0.84320       -1.86860
H          2.87480       -1.83010       -0.38800
H          5.23530       -0.74680       -0.20600
