13
5151	1
C          0.90580       -0.02530        0.32710
C          2.32790        0.04370       -0.21050
O          2.47960        1.19020       -1.03100
N          3.72000        1.15970       -1.58220
C          4.29450       -0.07030       -2.00950
N          3.69800       -1.16090       -1.68950
O          2.60200       -1.09850       -0.95160
H          0.68330        0.88360        0.92530
H          0.78860       -0.91880        0.97650
H          0.18170       -0.09090       -0.51290
H          3.03080        0.11210        0.65130
H          4.20300        2.04490       -1.79100
H          5.21890       -0.08990       -2.57680
