16
2957	1
C          1.18780        0.10240        0.15420
C          2.69740        0.03030        0.09880
C          3.43480        0.63990       -1.05480
C          2.81610        1.26190       -2.06710
C          3.35820       -0.59080        1.10460
C          4.85550       -0.72280        1.15530
F          5.22630       -1.40370        2.30030
H          0.75640       -0.40560       -0.73370
H          0.86440        1.16440        0.16500
H          0.77230       -0.38790        1.06070
H          4.51770        0.58620       -1.09100
H          1.73740        1.35950       -2.10810
H          3.40290        1.68480       -2.87630
H          2.79200       -1.02220        1.92620
H          5.32570        0.28300        1.17250
H          5.21750       -1.29010        0.27200
