16
3780	1
C          0.77500       -0.19250        0.10350
C          2.27230       -0.30790        0.07930
C          3.05380        0.27460        1.00690
F          2.49670        1.00050        2.01560
C          4.55950        0.13860        0.95300
C          5.22560        1.50750        0.78800
O          5.03070       -0.50730        2.10850
H          0.43160        0.28120       -0.83940
H          0.40550        0.41460        0.95630
H          0.33320       -1.20780        0.17810
H          2.72330       -0.88550       -0.72260
H          4.85930       -0.47970        0.07820
H          4.98060        2.17160        1.64460
H          4.87840        1.99020       -0.15060
H          6.32840        1.38550        0.73600
H          4.82120        0.07070        2.88890
