14
3486	1
C          1.10740       -0.01090        0.14150
C          2.61780       -0.08520       -0.12930
O          2.91980       -1.27930       -0.81080
C          3.12710        1.12220       -0.89830
O          3.61700        0.96920       -2.00770
C          3.07460        2.51310       -0.32270
F          2.56820        2.52780        0.96380
H          0.78750       -0.90840        0.71220
H          0.54340        0.02160       -0.81520
H          0.83910        0.88340        0.73770
H          3.14940       -0.11940        0.84570
H          2.39850       -1.29020       -1.65660
H          2.44670        3.15980       -0.97060
H          4.10320        2.92940       -0.29020
