16
511	1
C          2.98200       -0.72880        1.20580
C          2.58460        0.07920       -0.03070
C          3.16160       -0.51120       -1.33290
C          2.66290        0.28370       -2.54320
C          4.66760       -0.49140       -1.31370
O          5.29920       -1.53270       -1.39670
H          2.52140       -0.27510        2.10860
H          4.08410       -0.73060        1.34010
H          2.62380       -1.77600        1.11220
H          2.92590        1.13050        0.09560
H          1.47420        0.07910       -0.09370
H          2.80300       -1.56000       -1.43920
H          2.99120        1.34410       -2.48210
H          1.55330        0.25610       -2.58970
H          3.05940       -0.15990       -3.48190
H          5.19790        0.45180       -1.22470
