18
1363	1
C          1.18460        0.27610       -0.16990
N          2.61540        0.08560        0.05280
C          2.92960        0.33450        1.46750
C          4.44860        0.52510        1.65670
C          3.48690        1.68440        1.90090
C          3.45830        2.89070        0.95310
O          3.15430        1.93870        3.23750
H          0.94160        0.04510       -1.22840
H          0.89180        1.32810        0.04040
H          0.59720       -0.41090        0.47710
H          3.14600        0.68620       -0.61530
H          2.61370       -0.44360        2.19570
H          5.07290        0.78120        0.77400
H          4.91120        0.27520        2.63550
H          3.78810        2.65610       -0.07670
H          4.14800        3.66680        1.34460
H          2.43260        3.31280        0.92210
H          3.98170        2.28660        3.65990
