17
869	1
C          3.80710        1.44810       -0.39210
C          2.95920        0.18240       -0.17710
O          3.10530       -0.73800       -1.23190
C          3.19160       -0.49300        1.19430
C          4.56080       -1.07490        1.46050
N          5.50600       -1.02260        0.58890
N          6.74600       -1.55880        0.84490
H          3.53340        1.91890       -1.36000
H          4.89200        1.22320       -0.41260
H          3.61200        2.17930        0.42100
H          1.90050        0.52240       -0.19000
H          4.06580       -0.80220       -1.46810
H          2.45600       -1.31920        1.29820
H          2.97920        0.25180        1.99120
H          4.73400       -1.55240        2.42160
H          7.48290       -1.50190        0.12840
H          6.95250       -2.01840        1.74500
