17
4242	1
C          0.92400        0.05260        0.11890
C          2.44810       -0.00340        0.14240
C          3.06000        1.26670        0.72950
C          4.31780        0.69520        1.20850
C          5.37330        1.41350        1.60380
C          4.24780       -0.78250        1.25220
O          2.91900       -1.10810        0.89040
H          0.58290        0.91320       -0.49500
H          0.52540        0.16020        1.15030
H          0.52130       -0.88300       -0.32340
H          2.81990       -0.13760       -0.90150
H          2.51990        1.65660        1.62010
H          3.15650        2.04290       -0.06040
H          5.34600        2.49810        1.56360
H          6.26820        0.91920        1.96850
H          4.43140       -1.12780        2.29180
H          4.97980       -1.24130        0.55310
