12
431	1
C          0.93750        0.09750       -0.11330
C          2.46260        0.00860       -0.01350
C          3.22280       -0.64540       -1.15860
C          3.17650        0.88050       -1.02580
F          2.51830        1.39450       -2.12980
F          4.45410        1.33560       -0.75500
H          0.49000       -0.74140        0.45870
H          0.57090        0.04180       -1.16090
H          0.59500        1.05420        0.33360
H          2.96010        0.11300        0.97480
H          2.47980       -1.15900       -1.80560
H          4.03950       -1.21810       -0.66960
