18
2479	1
C          0.73440       -0.93670       -0.20270
C          2.16050       -0.72990       -0.61910
C          3.16380       -1.41870       -0.05280
C          4.60040       -1.20770       -0.47000
N          5.38780       -0.74120        0.67480
C          5.13630       -2.49530       -1.06440
C          6.20920       -3.14950       -0.59780
H          0.31890        0.02480        0.16380
H          0.64060       -1.69430        0.60460
H          0.14310       -1.27580       -1.07830
H          2.36990       -0.00320       -1.39900
H          2.94960       -2.14790        0.72470
H          4.66340       -0.43630       -1.26950
H          5.29520       -1.41000        1.47500
H          5.02120        0.18680        0.98950
H          4.62000       -2.90730       -1.92740
H          6.77560       -2.79230        0.25430
H          6.53150       -4.06470       -1.08360
