13
479	1
N          1.08880        0.07120       -0.36730
C          2.49710        0.04590        0.03440
C          2.82030        1.20490        0.99070
F          2.57430        2.41830        0.37300
C          2.83330       -1.30660        0.67450
F          2.08140       -1.51410        1.81840
H          0.88060        0.96260       -0.87290
H          0.46970        0.01630        0.47430
H          3.12800        0.15550       -0.87560
H          3.89250        1.17070        1.27910
H          2.20280        1.13780        1.91180
H          3.91140       -1.34590        0.93980
H          2.62290       -2.12470       -0.04680
