19
3871	1
C          1.97510       -1.04140        0.28350
O          3.21600       -0.45860        0.13430
C          3.49740        0.87140        0.26530
C          2.40010        1.86760        0.60500
C          4.78490        1.28590        0.08450
C          5.87810        0.29710       -0.25360
C          5.20860        2.73510        0.20560
H          1.26400       -0.63270       -0.46580
H          1.59310       -0.87760        1.31370
H          2.06820       -2.13390        0.11590
H          1.40350        1.40290        0.72520
H          2.31020        2.62000       -0.20670
H          2.63710        2.37640        1.56320
H          5.52580       -0.75160       -0.33280
H          6.66100        0.33220        0.53280
H          6.33610        0.57420       -1.22610
H          4.39280        3.44010        0.45330
H          5.65300        3.06630       -0.75620
H          5.97770        2.82440        1.00120
