13
875	1
C          0.86120       -0.01370        0.19880
C          2.35980        0.07210       -0.07550
C          3.16720        1.15430        0.81520
N          3.79530        0.03950        1.46610
C          3.15630       -0.84850        0.76690
O          3.24780       -2.06350        0.84000
H          0.35040        0.84420       -0.28550
H          0.64880        0.01270        1.28960
H          0.45760       -0.95750       -0.22430
H          2.66080        0.00290       -1.14280
H          2.55340        1.72650        1.54580
H          3.92110        1.74790        0.25330
H          4.49710       -0.04920        2.21500
