12
140	1
O          1.02250        0.03860        0.16700
C          2.41060        0.06400       -0.01460
C          3.14770        1.09540        0.82150
N          4.05740        0.08520        1.36560
C          3.15440       -0.94240        0.84300
H          0.68080        0.85330       -0.28360
H          2.77410        0.02320       -1.06550
H          2.50560        1.50410        1.63930
H          3.66190        1.87670        0.22240
H          4.02840        0.09500        2.41220
H          2.51570       -1.33740        1.67010
H          3.67420       -1.73490        0.26310
