14
4228	2
F          1.05010       -0.03460       -0.18650
C          2.41530       -0.09340        0.02530
C          2.98190        1.07260        0.85370
N          4.22260        0.52380        1.31810
C          4.16810       -0.87710        1.29390
N          5.04490       -1.62300        1.86260
C          2.89540       -1.38220        0.71940
H          2.94660       -0.05370       -0.95420
H          2.34880        1.29080        1.74120
H          3.11190        1.98180        0.22870
H          4.92010        1.05660        1.85830
H          5.87880       -1.21300        2.30770
H          2.24220       -1.68090        1.56720
H          3.00150       -2.20570       -0.01890
