17
1030	1
C          0.95700        0.21340       -0.09110
C          2.48540        0.19420       -0.00930
C          2.98030        1.13190        1.09460
C          2.96420       -1.20660        0.25870
N          3.72880       -1.80170       -0.58480
N          4.16850       -3.07980       -0.34510
C          4.93230       -3.67360       -1.18770
H          0.59810        1.24240       -0.30720
H          0.50580       -0.12870        0.86560
H          0.61050       -0.45430       -0.90890
H          2.89350        0.55050       -0.98190
H          2.58840        0.81670        2.08600
H          2.64530        2.17170        0.89240
H          4.09090        1.12560        1.13060
H          2.65850       -1.71240        1.17230
H          5.27340       -4.68320       -0.98760
H          5.24270       -3.17590       -2.10240
