15
2794	2
C          0.56360        0.32650       -0.24520
C          1.92550        0.02710        0.31910
N          2.12410       -1.10590        1.17490
N          1.08010       -1.96740        1.49510
N          2.90700        0.80960        0.01610
N          4.17740        0.60000        0.49660
C          5.13980        1.37660        0.15480
H          0.21360       -0.52600       -0.86270
H          0.59010        1.23430       -0.88570
H         -0.15520        0.50420        0.58110
H          3.05630       -1.30300        1.56570
H          0.70770       -2.38510        0.61260
H          0.33010       -1.42250        1.97730
H          6.13670        1.20050        0.54330
H          4.96820        2.20860       -0.52140
