14
802	2
C          0.76390       -0.02510       -0.12930
C          2.24330        0.05720        0.11510
N          3.01850        0.61560       -0.74750
N          2.77680       -0.49520        1.31390
C          4.19480       -0.46540        1.60750
C          4.45490       -1.16220        2.87280
N          4.65960       -1.71120        3.87080
H          0.47370        0.47590       -1.07650
H          0.23210        0.46430        0.71240
H          0.46140       -1.09210       -0.18290
H          2.64950        1.01630       -1.62300
H          2.12190       -0.91900        1.99220
H          4.54810        0.57860        1.66450
H          4.75270       -1.00170        0.79970
