16
76	1
C          1.66890        0.00830        0.68070
O          3.02500       -0.26490        0.41240
C          3.14020       -0.84320       -0.87130
C          4.61390       -1.14920       -1.18180
C          5.47880        0.11760       -1.20470
O          5.13180       -2.09130       -0.27550
H          1.59780        0.45980        1.69150
H          1.06310       -0.92480        0.69790
H          1.25560        0.75120       -0.03720
H          2.76060       -0.14500       -1.65300
H          2.57850       -1.80450       -0.92040
H          4.65780       -1.60010       -2.19710
H          5.48040        0.61350       -0.21080
H          5.09150        0.83260       -1.96150
H          6.52400       -0.14660       -1.47150
H          5.15850       -1.66890        0.62280
