11
2847	1
C          0.98830       -0.02910        0.09750
C          2.45120       -0.03510        0.09330
C          3.65680       -0.03990        0.09000
C          5.09780       -0.04640        0.08550
F          5.75970       -1.02250       -0.58930
C          5.78090        0.89700        0.73770
F          7.13960        0.88460        0.72920
H          0.61380       -1.07130        0.03110
H          0.61820        0.55270       -0.77160
H          0.62290        0.43590        1.03620
H          5.26150        1.68200        1.28040
