16
1814	1
F          1.19160       -0.49500       -0.06640
C          2.57760       -0.45120       -0.10550
C          3.12180       -0.15810        1.29820
C          2.71780       -1.22520        2.28450
C          3.62620       -1.94530        2.94940
C          3.16770       -1.72760       -0.66120
C          2.41540       -2.77200       -1.02630
H          2.87330        0.38120       -0.77900
H          2.71090        0.81260        1.64870
H          4.22900       -0.05820        1.24480
H          1.66220       -1.41210        2.45880
H          4.68900       -1.78340        2.79780
H          3.30420       -2.70620        3.65280
H          4.24650       -1.79730       -0.76730
H          1.33420       -2.75030       -0.93830
H          2.88880       -3.66570       -1.41950
