19
3091	1
C          3.76460        1.38520       -0.33910
C          3.03410        0.20250        0.32330
N          1.59210        0.46070        0.36060
C          3.29890       -1.15330       -0.37830
O          2.87650       -1.08850       -1.71800
C          4.77710       -1.58110       -0.31170
N          4.95380       -2.90820       -0.89430
H          3.53720        2.32340        0.21020
H          3.43980        1.50740       -1.39420
H          4.86360        1.24640       -0.31190
H          3.39090        0.12050        1.37470
H          1.22200        0.60740       -0.60700
H          1.40300        1.32420        0.92040
H          2.69510       -1.91130        0.17630
H          2.62540       -2.00940       -1.99040
H          5.11410       -1.60000        0.74900
H          5.41170       -0.86340       -0.87240
H          4.42130       -3.60660       -0.32600
H          5.96650       -3.16280       -0.84000
