13
4918	1
F          1.01420       -0.03960        0.77150
C          2.24240       -0.06060        0.13350
C          3.20660        1.02400        0.71170
N          3.96070       -0.05680        1.21530
C          3.18780       -1.14210        0.74670
C          5.10630       -0.04430        1.93640
O          5.62660       -1.09170        2.28650
H          2.20570       -0.07820       -0.97690
H          2.79230        1.62870        1.54750
H          3.79910        1.57690       -0.04910
H          2.76310       -1.71200        1.60160
H          3.77030       -1.72940        0.00430
H          5.56730        0.90040        2.20610
