11
4817	1
N          1.23560        0.13820        0.04110
C          2.63930       -0.00630        0.03600
N          3.50310        1.02680        0.03460
O          4.68530        0.48720        0.02960
C          4.56690       -0.81890        0.02800
N          5.65350       -1.71860        0.02290
N          3.27460       -1.19380        0.03200
H          0.81140        1.07690        0.04410
H          0.62910       -0.69430        0.04200
H          6.61960       -1.36180        0.02000
H          5.48520       -2.73480        0.02190
