20
6397	1
C          2.53160       -2.65870        3.80520
C          3.72030       -1.83390        3.32660
N          4.15020       -2.29010        2.00100
C          5.31730       -1.53030        1.54420
C          6.64150       -1.86930        2.23650
C          7.30510       -1.74880        0.86510
C          5.93980       -2.04510        0.24430
H          2.22030       -2.31620        4.81400
H          2.81090       -3.73210        3.86100
H          1.67560       -2.54120        3.10800
H          4.54660       -1.96050        4.05980
H          3.42950       -0.76000        3.29160
H          3.37320       -2.12240        1.31960
H          5.16340       -0.42550        1.48640
H          6.64090       -2.94610        2.52990
H          6.99660       -1.21470        3.06010
H          8.16170       -2.41220        0.62270
H          7.55100       -0.67570        0.68370
H          5.81880       -3.15320        0.18840
H          5.66860       -1.55130       -0.71250
