17
2844	1
C          1.04630       -0.15570        0.02240
C          2.54340       -0.05900       -0.05180
C          3.19520        0.88010       -0.77210
C          2.48970        1.93940       -1.58460
C          4.60120        0.88010       -0.77210
C          5.79140        0.88010       -0.77210
C          7.23540        0.88010       -0.77210
H          0.76010       -1.00680        0.67510
H          0.62290       -0.33090       -0.98910
H          0.62290        0.77580        0.45370
H          3.11970       -0.79140        0.51000
H          1.38480        1.87760       -1.53720
H          2.78830        1.84520       -2.65000
H          2.78830        2.94400       -1.21750
H          7.60550        0.73650       -1.80810
H          7.60540        0.05470       -0.12970
H          7.60550        1.84910       -0.37840
