13
921	1
N          1.28650       -0.07220        0.47730
C          2.49790       -0.02830        0.05490
N          3.17050        1.14050       -0.27240
C          4.51100        0.82190       -0.71020
C          4.59510       -0.74510       -0.61230
N          3.29330       -1.14830       -0.12950
H          0.73840        0.79210        0.59690
H          2.77720        2.09110       -0.21350
H          5.25110        1.30440       -0.03680
H          4.65610        1.16490       -1.75680
H          5.37790       -1.05850        0.11100
H          4.78330       -1.19790       -1.60910
H          3.00230       -2.12040        0.04990
