16
3393	1
C          3.57180       -1.23500        0.21720
N          2.71420       -0.08360       -0.06570
C          1.35810       -0.25820       -0.18550
O          0.84870       -1.36220       -0.06000
C          3.29950        1.23700       -0.21840
C          2.42960        2.44340       -0.51160
C          4.63160        1.43370       -0.10490
H          3.01210       -2.18870        0.31250
H          4.10960       -1.07780        1.17620
H          4.30470       -1.37040       -0.60640
H          0.70220        0.57740       -0.39440
H          1.69710        2.58650        0.31020
H          1.89210        2.29410       -1.47140
H          3.01810        3.38180       -0.60120
H          5.32260        0.62670        0.10320
H          5.05790        2.42570       -0.22100
