14
305	1
C          0.90900       -0.09600        0.09860
C          2.40890        0.04180        0.02560
N          2.93160        1.14120       -0.71570
C          3.18640       -0.87670        0.66190
C          4.67390       -0.93310        0.72100
O          5.45640       -0.02130        0.11110
O          5.19850       -1.84190        1.34700
H          0.47890        0.81470        0.56540
H          0.58470       -0.97650        0.69370
H          0.49970       -0.20200       -0.92780
H          2.27940        1.79640       -1.17090
H          3.93140        1.32540       -0.82730
H          2.67840       -1.67470        1.19820
H          6.42160       -0.07400        0.16040
