14
164	1
C          0.97780        0.24850       -0.15750
C          2.47110        0.08360        0.07950
O          2.67630       -0.66340        1.22340
C          3.89320       -1.00540        1.73480
N          3.94460       -1.77740        2.91970
N          4.99510       -0.64530        1.16950
H          0.80790        0.84870       -1.07620
H          0.51060        0.77000        0.70490
H          0.50010       -0.74630       -0.28370
H          2.93000        1.08990        0.19590
H          2.91940       -0.43340       -0.79710
H          3.07280       -2.07240        3.38240
H          4.85100       -2.04980        3.32770
H          5.02180       -0.08400        0.30740
