16
1660	2
C          1.13600        0.33800       -0.06350
C          2.53870        0.07750        0.49260
C          2.81940        0.96600        1.71040
F          1.92780        0.69940        2.73570
N          2.65510       -1.32480        0.87350
C          3.58370       -2.26930        0.32720
N          4.44600       -1.97580       -0.58400
H          1.02970        1.40400       -0.35810
H          0.35880        0.09540        0.69260
H          0.96550       -0.29250       -0.96210
H          3.25690        0.36840       -0.29170
H          2.73570        2.03790        1.42990
H          3.85200        0.78190        2.07610
H          2.01210       -1.67510        1.60010
H          3.55990       -3.28730        0.70190
H          4.55380       -1.04790       -1.00550
