12
5964	2
C          0.89900       -0.04610       -0.04570
C          2.39220       -0.06570       -0.04410
C          3.24990        1.01230       -0.04160
O          4.48390        0.54920       -0.04100
N          4.49800       -0.75550       -0.04280
C          3.21630       -1.16180       -0.04480
O          2.82630       -2.44960       -0.04710
H          0.52530        0.99960       -0.04460
H          0.51890       -0.56600        0.85830
H          0.52090       -0.56340       -0.95200
H          2.98100        2.06030       -0.04040
H          3.47900       -3.16340       -0.04740
