9
1816	1
C         -1.36020       -0.08950        0.00130
C         -0.73310        1.15230        0.05500
N          0.62190        1.20230        0.11890
N          1.34810        0.08290        0.13040
C          0.74770       -1.13520        0.07840
N         -0.60590       -1.21720        0.01390
H         -2.43870       -0.15770       -0.05010
H         -1.31350        2.06520        0.04620
H          1.34590       -2.03590        0.08830
