17
436	1
C          3.29060       -1.09270        0.38790
C          2.82290        0.16430       -0.35210
C          3.07030        1.46940        0.44110
C          2.53540        2.65960       -0.37690
O          2.37660        1.38800        1.66620
C          4.55660        1.65540        0.67270
O          5.01370        1.71490        1.80380
H          3.07090       -1.98850       -0.23050
H          2.75840       -1.19600        1.35700
H          4.38440       -1.05840        0.57430
H          1.73330        0.05790       -0.54960
H          3.34670        0.21290       -1.33270
H          1.44480        2.54620       -0.55730
H          3.05130        2.72710       -1.35950
H          2.69990        3.61380        0.16870
H          2.48210        2.25430        2.14130
H          5.22810        1.73220       -0.17710
