14
1581	1
C          2.44970        1.16370        0.05670
C          2.24790       -0.15620        0.05080
C          3.03350       -1.05530       -0.86600
C          4.49430       -1.19850       -0.49730
C          4.13690       -2.66560       -0.41400
O          2.76790       -2.41560       -0.63160
H          1.87320        1.79810        0.72200
H          3.18800        1.61500       -0.59960
H          1.50240       -0.58550        0.71380
H          2.88660       -0.82810       -1.94660
H          4.71810       -0.80840        0.52090
H          5.19920       -0.95060       -1.31990
H          4.32210       -3.10050        0.59280
H          4.54650       -3.25270       -1.26650
