17
646	1
C          0.88810        0.00850        0.08390
N          2.34700       -0.12100       -0.08430
C          2.76080       -1.48450        0.28750
C          2.77340        0.16360       -1.47300
C          2.58810        1.63970       -1.85280
C          3.07750        1.87640       -3.21600
N          3.46000        2.05960       -4.29270
H          0.58950       -0.28240        1.11450
H          0.33830       -0.63070       -0.64210
H          0.56990        1.06320       -0.03440
H          2.46500       -1.70830        1.33530
H          3.86700       -1.57820        0.23760
H          2.30230       -2.24280       -0.38660
H          2.22370       -0.48710       -2.19160
H          3.86080       -0.06080       -1.57050
H          3.15720        2.28410       -1.14970
H          1.51950        1.93070       -1.82800
