17
6370	1
C          1.43330       -0.16760       -0.46940
C          2.85980        0.08730        0.02390
C          3.53640       -1.04540        0.71720
C          4.05880       -0.56370       -0.67450
C          5.03130        0.60460       -0.64850
C          4.13380        1.80290       -0.47020
O          3.17960        1.38800        0.46480
H          1.30070       -1.21590       -0.81330
H          1.20920        0.51510       -1.31540
H          0.71750        0.03280        0.35460
H          3.17350       -2.08190        0.55380
H          4.31810       -0.84050        1.47880
H          3.60280       -0.77990       -1.66510
H          5.68090        0.67510       -1.54620
H          5.68110        0.51020        0.24980
H          3.62000        2.06780       -1.42460
H          4.71040        2.68330       -0.11590
