16
723	2
C          1.09140        1.51430        0.36820
C          1.79440        0.20400        0.04900
O          3.07250        0.21150        0.63950
N          3.67960       -0.93190        0.26760
C          4.66070       -0.92500       -0.67080
C          5.08410        0.35580       -1.33100
O          5.20850       -1.97200       -0.98160
H          0.08010        1.52010       -0.09070
H          1.67580        2.36770       -0.03690
H          0.98860        1.63320        1.46780
H          1.87020        0.11680       -1.05910
H          1.18190       -0.62980        0.46090
H          3.41420       -1.81970        0.72330
H          4.22220        0.80820       -1.86420
H          5.89670        0.16890       -2.06530
H          5.45470        1.06740       -0.56380
