18
4125	1
C          1.58560        0.66070        1.29780
O          1.36450        0.83150       -0.08350
C          2.53210        1.35760       -0.67520
C          3.63990        0.34740       -1.01960
C          2.14490        2.17040       -1.90750
C          2.68190        2.88220       -0.65700
N          4.08530        3.30730       -0.65700
H          0.62610        0.36470        1.76890
H          1.90610        1.60400        1.79280
H          2.30900       -0.16110        1.48820
H          3.19650       -0.50970       -1.56930
H          4.10240       -0.03220       -0.08580
H          4.44390        0.77600       -1.65030
H          1.10340        2.54250       -2.01380
H          2.87550        2.34940       -2.72480
H          2.02010        3.29320        0.13480
H          4.62670        2.97930       -1.48700
H          4.54580        2.97940        0.22190
