9
54	1
F          2.76860        1.09980       -0.24850
C          2.34330       -0.13950        0.19820
F          2.76860       -0.32550        1.50230
F          0.96120       -0.17450        0.16970
C          2.89590       -1.24430       -0.70120
C          4.33990       -1.24430       -0.70120
N          5.49090       -1.24430       -0.70120
H          2.53720       -1.09300       -1.74140
H          2.53720       -2.23210       -0.34200
