16
4989	1
F          2.45020       -0.09440        1.47900
C          2.38950        0.26730        0.16950
C          1.53630        1.22580       -0.20610
C          3.28170       -0.42130       -0.82640
C          4.74840       -0.21560       -0.42620
C          5.69810       -0.61170       -1.53840
C          5.55060        0.86060       -1.13390
H          0.90210        1.70710        0.53130
H          1.46400        1.53650       -1.24400
H          3.08850       -0.04840       -1.85790
H          3.05360       -1.50810       -0.81350
H          5.12650       -0.64240        0.52830
H          5.36490       -0.63430       -2.59820
H          6.75090       -0.86190       -1.28870
H          4.82680        1.51000       -1.67190
H          6.20960        1.28500       -0.34670
