16
3937	1
N          2.46820       -0.28280        1.62730
C          2.35310        0.00830        0.20020
C          2.89600       -1.12750       -0.68420
F          2.74400       -0.82710       -2.02960
C          4.28580       -1.69940       -0.46860
N          3.78360       -3.06900       -0.63820
C          2.42430       -2.54810       -0.44560
H          1.98260        0.47830        2.15480
H          3.47280       -0.24490        1.90980
H          2.89230        0.95220       -0.03500
H          1.27900        0.14910       -0.05040
H          4.65470       -1.57860        0.57460
H          5.03680       -1.39160       -1.22660
H          4.06410       -3.67090        0.16980
H          2.11350       -2.71530        0.61300
H          1.68010       -2.92170       -1.18100
