15
6140	1
C          0.99960       -0.09420        0.08640
C          2.49850       -0.09660        0.02010
C          3.24740       -1.16850       -0.04840
F          2.76920       -2.44100       -0.06800
C          4.68180       -0.82080       -0.09720
N          4.72590        0.65400       -0.04980
C          3.32980        1.12830        0.02730
H          0.58860       -1.12570        0.06930
H          0.59360        0.46440       -0.78240
H          0.67250        0.40340        1.02300
H          5.13660       -1.20910       -1.03520
H          5.20610       -1.24660        0.78410
H          5.15970        1.01180       -0.93250
H          3.07360        1.77060       -0.84450
H          3.17110        1.69130        0.97140
