12
1123	1
F          0.97850        0.56550       -0.27090
C          2.31330        0.31190       -0.24230
C          3.15970        1.22180       -0.74090
C          2.78240       -0.96490        0.34100
N          4.03430       -1.25380        0.39260
N          4.45330       -2.44240        0.93680
C          5.70270       -2.72940        0.98820
H          2.77510        2.14610       -1.15990
H          4.23290        1.05800       -0.73720
H          2.04640       -1.66390        0.72990
H          6.02190       -3.67130        1.42030
H          6.44740       -2.03830        0.60290
