16
3524	1
C          1.79390        0.64000       -0.93090
O          3.07230        0.79560       -0.43230
C          3.42760        1.58070        0.62730
C          2.51610        2.30330        1.31460
C          4.89170        1.61340        1.01550
C          5.74130        2.12940       -0.14250
F          5.12230        2.41210        2.12510
H          1.82480       -0.05860       -1.79200
H          1.39660        1.61560       -1.28360
H          1.12660        0.21060       -0.15350
H          1.46490        2.28990        1.05090
H          2.80680        2.92350        2.15560
H          5.21140        0.57900        1.26460
H          5.44540        3.16820       -0.40330
H          5.61890        1.48110       -1.03640
H          6.81290        2.12600        0.14910
