18
4065	1
C          0.92870        0.01790       -0.16200
C          2.43200       -0.09590        0.11070
C          2.84170       -0.08930        1.60530
N          4.27070       -0.29430        1.83640
C          3.22270       -0.94780       -0.85030
C          3.28120        0.61560       -0.92940
O          4.51750        1.08150       -0.46830
H          0.40080       -0.83900        0.30640
H          0.69680        0.01980       -1.24940
H          0.54180        0.96090        0.27790
H          2.27460       -0.88500        2.13710
H          2.54120        0.88950        2.03770
H          4.52040       -1.28000        1.59460
H          4.45880       -0.17550        2.85800
H          2.62200       -1.35710       -1.69240
H          4.26770       -1.29330       -0.70120
H          3.04420        0.84650       -1.99100
H          4.32140        1.95450       -0.04160
