14
2073	1
C          3.71580       -0.78320        1.10530
C          3.55750        0.59410        0.46240
O          3.26640        0.49600       -0.88710
C          4.13160        0.04190       -1.83340
O          5.28180       -0.25300       -1.53690
N          3.71490       -0.07040       -3.11660
O          4.55070       -0.50500       -4.07200
H          3.90840       -0.66500        2.19240
H          4.56540       -1.33920        0.65900
H          2.78510       -1.37370        0.96860
H          4.47360        1.20570        0.61470
H          2.71120        1.10970        0.96350
H          2.74840        0.18700       -3.36660
H          4.36630       -1.47610       -4.15090
