11
4794	1
N          0.89120        0.02500        0.01600
C          2.30280       -0.00010        0.02140
C          3.13410        1.09610        0.02090
O          4.36610        0.64690        0.02700
C          4.30640       -0.66830        0.03110
O          5.38500       -1.47100        0.03780
N          3.03800       -1.12550        0.02780
H          0.38720        0.92340        0.01120
H          0.35820       -0.85640        0.01690
H          2.84870        2.13970        0.01640
H          6.27660       -1.09630        0.03990
