14
1823	1
C          0.59600        1.18560       -0.29360
O         -0.77050        1.36050       -0.05190
C         -1.31500        0.09270       -0.28110
C         -0.34490       -0.94830        0.25880
C          0.79780       -1.38870       -0.62060
C          1.00660       -0.17550        0.24990
H          1.17890        1.97670        0.22250
H          0.79520        1.26120       -1.38690
H         -1.49190       -0.04670       -1.37200
H         -2.28740       -0.00550        0.24510
H         -0.46340       -1.25410        1.32400
H          0.67040       -1.17850       -1.70410
H          1.31870       -2.29540       -0.24920
H          1.34100       -0.22260        1.31200
