15
15	1
C          1.00870       -0.07050       -0.04920
C          2.54210       -0.09410       -0.09790
C          3.01460       -1.23210       -1.01430
F          2.98430        1.11100       -0.61950
C          3.10760       -0.25960        1.32510
O          4.51050       -0.20690        1.31800
H          0.59290        0.07510       -1.06920
H          0.65640        0.76750        0.58970
H          0.61270       -1.02340        0.36370
H          2.60420       -1.09620       -2.03780
H          2.67780       -2.21660       -0.62360
H          4.12230       -1.23890       -1.09140
H          2.74830       -1.20940        1.78760
H          2.74030        0.56490        1.97310
H          4.83770       -1.14310        1.27460
