15
2598	2
C          0.68740        0.18910        0.04610
C          2.16450        0.13610        0.30780
C          3.02390        0.89810       -0.39360
C          4.50540        0.90050       -0.19060
N          5.23410        1.67240       -0.91860
N          5.13860        0.07440        0.78470
O          6.47200        0.10390        0.92770
H          0.33270       -0.81990       -0.25020
H          0.42820        0.90640       -0.76200
H          0.16310        0.49810        0.97410
H          2.50460       -0.53800        1.08090
H          2.62300        1.55780       -1.15920
H          4.82310        2.28780       -1.63660
H          4.59670       -0.56300        1.38050
H          6.63600        0.75850        1.65410
