10
920	1
O          1.31560       -0.17000        0.42230
C          2.49070       -0.08830        0.10370
C          3.27780        1.13560        0.11050
O          4.55640        0.70890       -0.33320
C          4.47830       -0.69970       -0.57620
O          3.20460       -1.11620       -0.29270
H          3.34080        1.54700        1.14000
H          2.84690        1.87420       -0.59800
H          5.19520       -1.23400        0.08240
H          4.70490       -0.90920       -1.64300
