11
715	2
C          1.01020        0.13340        0.16760
N          2.43090       -0.04350        0.01780
C          3.08510        0.04560       -1.24230
N          4.30530       -0.30910       -1.34490
C          2.39850        0.50190       -2.40660
N          1.83730        0.87180       -3.34400
H          0.75330        0.12140        1.24270
H          0.48840       -0.70830       -0.32270
H          0.66660        1.08970       -0.26100
H          2.92430       -0.52080        0.78170
H          4.78460       -0.63230       -0.50060
