19
5541	1
C          1.02700        0.02740       -0.22340
C          2.51410        0.02920        0.13550
C          2.88940        1.03050        1.21940
O          4.15210        0.63830        1.72950
C          4.36690       -0.68910        1.28190
C          3.02500       -1.22030        0.79660
C          3.13130       -2.45070       -0.10620
H          0.74070        1.01670       -0.63860
H          0.40580       -0.17890        0.67420
H          0.81960       -0.74840       -0.98960
H          3.12140        0.23960       -0.77710
H          2.16290        0.98110        2.06250
H          2.90710        2.06440        0.81400
H          4.78230       -1.33650        2.08320
H          5.09320       -0.63980        0.43880
H          2.38810       -1.45700        1.68230
H          3.76390       -2.23420       -0.99340
H          2.12280       -2.76000       -0.45110
H          3.58270       -3.29270        0.45990
