18
1933	1
N          1.93500       -1.30470       -0.03220
C          2.36580        0.08360       -0.17770
C          2.71280        0.68690        1.16680
C          1.74840        0.85470        2.08830
C          4.13250        1.13290        1.46940
C          5.12340       -0.03550        1.54300
O          5.26000       -0.67280        0.30030
H          1.74770       -1.69430       -0.98420
H          1.03760       -1.34340        0.50210
H          1.56580        0.68550       -0.66290
H          3.24560        0.11340       -0.85260
H          0.72480        0.55740        1.88280
H          1.96950        1.29480        3.05580
H          4.16920        1.64190        2.45810
H          4.46130        1.86980        0.70560
H          4.79640       -0.74660        2.33870
H          6.12120        0.35070        1.84070
H          4.95850       -1.61180        0.41220
