18
2883	1
C          1.10280        0.43270       -0.50840
O          2.45750        0.26670       -0.33050
C          3.09660       -0.85630       -0.73650
C          4.42960       -0.99390       -0.58640
C          5.27190        0.09070        0.04360
C          5.11240       -2.25890       -1.05280
N          6.10610       -1.94830       -2.07440
H          0.79900        1.41790       -0.09870
H          0.54500       -0.36630        0.02470
H          0.85450        0.40310       -1.59080
H          2.52190       -1.65860       -1.19510
H          4.67870        0.97310        0.36140
H          6.03640        0.43740       -0.68260
H          5.78740       -0.31670        0.93830
H          4.38300       -2.99210       -1.46530
H          5.61400       -2.73420       -0.18260
H          5.62030       -1.56240       -2.91630
H          6.58030       -2.83570       -2.35830
