12
5025	1
F          0.72220        0.51360        0.14730
C          2.06170        0.54540        0.37090
F          2.55300        0.06410        1.54410
C          2.87890        1.05500       -0.55790
C          4.37240        1.11980       -0.35150
C          5.09610       -0.12700       -0.07650
N          5.08620        0.41340       -1.44350
H          2.45920        1.44550       -1.48020
H          4.85930        2.11150       -0.24550
H          4.52450       -1.08120       -0.01840
H          6.10290       -0.00500        0.37340
H          4.43180       -0.17950       -2.00770
