16
2125	2
N          0.53970        0.33610        0.23770
C          1.82850       -0.24080       -0.13880
C          2.97050        0.76970       -0.12710
N          2.77340        1.99910        0.20940
N          4.29420        0.36910       -0.48540
C          4.62380       -0.96560       -0.86470
C          5.87660       -1.28840       -1.19640
H         -0.16880       -0.43240        0.26920
H          0.23580        1.00300       -0.50900
H          1.74040       -0.67880       -1.15750
H          2.07590       -1.05250        0.57900
H          1.85390        2.36800        0.48730
H          5.04190        1.08050       -0.46780
H          3.86540       -1.74030       -0.89060
H          6.66540       -0.54270       -1.18390
H          6.11670       -2.30700       -1.48360
