13
2	1
C          0.91620        0.00430        0.07370
C          2.44630       -0.01380        0.04660
C          2.97090       -1.44860       -0.09430
N          2.93280        0.82950       -1.04610
H          0.53960       -0.60450        0.92320
H          0.50230       -0.40470       -0.87310
H          0.55560        1.04710        0.20140
H          2.81450        0.40330        1.01010
H          2.62240       -1.90340       -1.04640
H          2.61240       -2.07180        0.75250
H          4.08150       -1.45040       -0.08110
H          2.62530        0.44310       -1.96840
H          3.97780        0.86030       -1.02870
