12
1635	2
O          1.88140        3.57860        1.29980
C          2.49490        2.89540        0.49560
N          3.63220        2.26500        0.86570
N          4.32110        1.48260       -0.06840
C          5.66260        2.07200       -0.28870
C          5.53230        0.87330        0.53370
H          2.12270        2.79930       -0.51980
H          3.96630        2.37230        1.83850
H          5.78870        3.05140        0.22650
H          5.95900        1.91350       -1.34660
H          5.60780        0.99470        1.63580
H          5.76470       -0.08470        0.02380
