15
2836	2
C          1.00640        0.00160       -0.18660
C          2.49330        0.18310       -0.06840
C          3.21560       -0.62190        0.98170
C          4.53580       -0.60990        1.25320
N          5.05780       -1.43470        2.28220
N          3.05220        1.02230       -0.88100
O          4.33950        1.28150       -0.89230
H          0.61590       -0.73430        0.54730
H          0.75570       -0.35760       -1.20700
H          0.49810        0.97300       -0.01000
H          2.59920       -1.28370        1.58410
H          5.23320        0.00900        0.71610
H          4.44310       -2.05120        2.83430
H          6.06740       -1.42130        2.48520
H          4.69880        1.91890       -1.52360
