11
3007	1
F          0.83870       -0.00280        0.15340
C          2.19540        0.10450        0.13300
C          2.81420        1.43380       -0.11930
C          2.06380        2.52000       -0.32560
C          2.92590       -1.00560        0.34380
C          4.33190       -1.00560        0.34380
N          5.48290       -1.00560        0.34380
H          3.89470        1.54010       -0.13950
H          0.97960        2.46570       -0.31520
H          2.53890        3.47870       -0.50760
H          2.41460       -1.94620        0.52240
