10
957	1
N          1.09670       -0.01610       -0.06190
C          2.37780       -0.02570       -0.05650
N          3.14160        1.08160       -0.05470
H          2.82830        2.07790       -0.05730
C          4.40590        0.62570       -0.04890
C          4.36350       -0.75590       -0.04730
O          3.09990       -1.12120       -0.05210
H          0.57440        0.87250       -0.06520
H          5.28930        1.25040       -0.04590
H          5.20690       -1.43330       -0.04290
