20
1591	1
C          1.02840        0.14260        0.68240
N          2.36700        0.73860        0.74030
C          2.78560        1.34650       -0.53990
C          1.92220        2.56880       -0.90580
C          4.28650        1.72300       -0.48150
C          4.64270        2.72350        0.62830
O          6.01830        2.99200        0.61110
H          0.82380       -0.39030        1.63530
H          0.95320       -0.58940       -0.15120
H          0.24920        0.92400        0.57840
H          3.02940       -0.04060        0.96690
H          2.68080        0.59960       -1.36020
H          1.94370        3.33390       -0.10330
H          0.86710        2.27700       -1.07790
H          2.28850        3.02240       -1.85120
H          4.59830        2.14320       -1.46290
H          4.87460        0.79390       -0.31430
H          4.34270        2.33620        1.62840
H          4.10970        3.68300        0.47340
H          6.46550        2.21950        1.04600
