17
3806	1
C          0.85840       -0.06920       -0.10900
C          2.35540       -0.07280        0.07760
C          3.07750       -0.93440        0.84850
C          2.45090       -2.05420        1.65840
C          4.57030       -0.80270        0.92740
C          5.32600        0.26110        0.17780
O          5.20310       -1.58360        1.62340
H          0.46440        0.91620        0.21560
H          0.29260       -0.84160        0.43330
H          0.63680       -0.19610       -1.18900
H          2.87600        0.70230       -0.47240
H          1.35680       -2.14990        1.59990
H          2.70290       -1.90980        2.73010
H          2.87550       -3.02390        1.32330
H          4.98760        1.26700        0.50360
H          5.16160        0.14460       -0.91390
H          6.41640        0.17990        0.37590
