16
6355	1
O          1.80420        0.06920       -0.85540
C          2.85290       -0.14380        0.04980
C          3.15180       -1.58540        0.46030
N          4.31740       -2.01870       -0.29220
C          5.13690       -0.81850       -0.31340
C          4.19510        0.35210       -0.58830
C          3.56860        1.06430        0.59180
H          1.02480        0.31380       -0.29390
H          2.28340       -2.25780        0.28960
H          3.39530       -1.60570        1.54630
H          4.01100       -2.21540       -1.27540
H          5.92830       -0.88710       -1.09060
H          5.63770       -0.69580        0.67390
H          3.92010        0.50140       -1.65630
H          3.13380        2.04390        0.30260
H          4.10740        0.91210        1.55080
