13
259	1
C          1.05050        0.16520       -0.07520
C          2.54700        0.02530       -0.00400
C          3.18970        0.21740        1.16180
C          3.28350       -0.32660       -1.24400
N          4.56200       -0.46000       -1.24550
O          5.19780       -0.77230       -2.35400
H          0.60590        0.42980        0.90840
H          0.60470       -0.79400       -0.41260
H          0.78730        0.96170       -0.80250
H          2.64110        0.47460        2.06290
H          4.26860        0.12080        1.23210
H          2.72510       -0.47320       -2.16560
H          6.15930       -0.87100       -2.34820
