18
5526	1
N          1.07420       -0.00400       -0.07280
C          2.52180        0.00990        0.12870
C          3.00240        1.07590        1.10820
C          4.45330        0.64320        1.27770
C          4.33470       -0.86200        1.51910
C          3.05450       -1.28300        0.76200
O          3.25750       -2.30510       -0.17840
H          0.78060        0.91150       -0.48440
H          0.58730       -0.11960        0.84570
H          3.03420        0.18810       -0.84600
H          2.46840        0.98270        2.08100
H          2.89020        2.11230        0.72680
H          5.02300        1.18060        2.06420
H          4.97250        0.80760        0.30590
H          4.13470       -1.00980        2.60430
H          5.26130       -1.41690        1.25880
H          2.33270       -1.63780        1.53300
H          3.97360       -2.00160       -0.79530
