13
5735	1
O          1.21760       -0.12540        0.15550
N          2.54430       -0.12060       -0.03860
C          3.34410       -1.31060       -0.23240
C          4.73180       -0.71740       -0.41020
C          4.70140        0.66440       -0.32560
C          3.33280        1.03370       -0.09490
N          2.87790        2.22640        0.04150
H          1.10400       -0.19760        1.13770
H          3.02280       -1.85930       -1.14250
H          3.29900       -1.96720        0.66180
H          5.63240       -1.29160       -0.58180
H          5.55410        1.32400       -0.41850
H          3.50800        3.04030       -0.00970
