13
2805	1
C          0.59570        0.32040       -0.72760
C          2.06180        0.47640       -0.43140
O          2.71030       -0.41240        0.36390
N          2.08680       -1.44010        0.90480
C          2.72340       -2.26510        1.65240
N          2.70480        1.46680       -0.94100
O          3.98860        1.63300       -0.70200
H          0.41860       -0.65280       -1.23130
H          0.23500        1.13480       -1.39200
H          0.01830        0.35360        0.21980
H          2.20140       -3.10740        2.09260
H          3.78280       -2.12840        1.84970
H          4.45980        2.38170       -1.09130
