15
675	1
C          0.93960       -0.31940        0.27520
N          2.37320       -0.50810        0.24490
C          3.27990        0.28800        1.01360
N          2.85410        1.23070        1.78550
N          4.67830        0.02970        0.92040
C          5.64600        0.79780        1.67100
H          0.44890       -1.05180       -0.40030
H          0.68330        0.70440       -0.07030
H          0.55660       -0.47910        1.30520
H          2.75600       -1.25090       -0.35900
H          1.85620        1.45890        1.88960
H          5.01220       -0.72470        0.30210
H          5.58030        1.86960        1.38740
H          6.67140        0.43240        1.45120
H          5.45350        0.68880        2.75930
