12
3454	1
O          0.93870        0.09270       -0.19320
C          2.32350        0.06650        0.02380
C          2.93610       -0.88180       -0.92110
C          3.39610       -1.63940       -1.73830
C          2.88720        1.45240       -0.14510
F          3.42970        2.08220        0.92940
C          2.86400        2.07950       -1.32700
H          0.56290       -0.72630        0.23110
H          2.52460       -0.26830        1.07140
H          3.79870       -2.30730       -2.45260
H          2.44880        1.60030       -2.20820
H          3.27920        3.08020       -1.42020
