16
797	1
C          2.94210       -1.29690       -0.30320
O          2.41390       -0.23370        0.40310
C          3.11680        0.77710        0.99590
C          2.28700        1.81810        1.70810
C          4.48020        0.81620        0.93140
C          5.37990        1.86550        1.53560
H          2.11240       -1.94250       -0.65700
H          3.60380       -1.90390        0.35080
H          3.50320       -0.93070       -1.18940
H          1.58870        2.27640        0.97710
H          2.83460        2.64040        2.19190
H          1.68820        1.31620        2.49650
H          5.00290        0.02940        0.39990
H          4.88410        2.68110        2.08360
H          5.97700        2.32940        0.72340
H          6.07650        1.36910        2.24270
