11
68	2
N          1.15760       -0.08520       -0.44060
C          2.45140        0.21190        0.16840
C          3.16050       -1.02270        0.68230
N          2.62790       -2.26500        0.56150
O          4.25020       -0.88990        1.21820
H          0.76370        0.80250       -0.82820
H          0.50010       -0.41530        0.30320
H          2.30550        0.92430        1.01040
H          3.10380        0.69590       -0.59030
H          1.71660       -2.42220        0.11100
H          3.14120       -3.08300        0.92210
