12
3181	1
C          0.98430       -0.03900       -0.07950
C          2.51050        0.06570       -0.09820
F          2.91920        0.62300       -1.29900
C          3.07070        0.87920        1.07880
F          4.45200        0.81650        1.05410
C          2.66840        2.29150        1.01870
N          2.34920        3.40290        0.97140
H          0.65100       -0.68400       -0.92040
H          0.51620        0.96050       -0.19620
H          0.63750       -0.49720        0.87170
H          2.92260       -0.96400       -0.03000
H          2.72070        0.44270        2.03880
