12
1842	1
C          1.03980       -1.12960       -0.10940
C         -0.44300       -1.29070       -0.05330
N         -1.00500       -0.23480        0.35580
N         -0.09480        0.73730        0.63810
C          0.48840        1.51730       -0.36980
C          1.23600        0.32090        0.42910
H          1.38460       -1.21810       -1.16100
H          1.55340       -1.87040        0.53870
H         -0.99210       -2.17720       -0.34040
H          0.58500        2.56110       -0.00690
H          0.04980        1.28610       -1.36510
H          1.72320        0.45730        1.41740
