11
174	1
N          0.90150        0.29890        0.13130
C          2.28830        0.00710        0.03850
N          2.76970       -1.03210        0.62170
C          3.19670        0.91830       -0.73420
C          3.13740        2.26830       -0.16450
N          3.07560        3.33410        0.28210
H          0.27620       -0.30680        0.68170
H          0.51240        1.13440       -0.32940
H          2.16090       -1.66660        1.15940
H          2.87350        0.95840       -1.79570
H          4.24880        0.55370       -0.69810
