15
2251	1
C          1.46470       -0.16110        0.42650
N          2.88660        0.13780        0.23020
C          3.47740       -0.82390       -0.71040
C          4.94350       -0.57760       -1.01120
C          5.65610        0.43150       -0.48090
C          5.59440       -1.48760       -1.92310
N          6.10620       -2.22300       -2.65530
H          1.02370        0.57070        1.13500
H          1.32880       -1.18250        0.84770
H          0.91210       -0.08490       -0.53530
H          3.36000        0.04120        1.15900
H          2.92890       -0.77560       -1.67720
H          3.38050       -1.85320       -0.29790
H          5.21900        1.14680        0.20600
H          6.70660        0.55370       -0.73690
