12
1320	2
N          2.71770       -0.49020        1.07720
C          2.21530       -0.12930       -0.03940
N          2.99550        0.44990       -1.06200
C          4.43450        0.61620       -0.98030
C          4.87490        1.18100       -2.26150
C          5.26750        1.60420       -3.31980
H          2.07090       -0.85460        1.78960
H          1.15540       -0.21400       -0.19770
H          2.47330        0.86530       -1.84550
H          4.93420       -0.34640       -0.78530
H          4.63730        1.32810       -0.16200
H          5.61320        1.97520       -4.24670
