16
1350	2
C          1.91820        0.31940       -0.84090
C          3.20950        0.34400       -0.03670
N          3.74560       -0.99350        0.06390
C          4.83960       -1.23670        0.69910
N          5.34870       -2.56100        0.78540
C          4.66900       -3.67900        0.17150
H          1.50600        1.34750       -0.91830
H          1.16920       -0.33120       -0.34130
H          2.11250       -0.06750       -1.86400
H          2.99940        0.74320        0.97990
H          3.94380        1.00720       -0.54470
H          5.38670       -0.42770        1.17770
H          6.22640       -2.72570        1.30010
H          4.59480       -3.52060       -0.92520
H          3.65030       -3.78430        0.60120
H          5.23530       -4.61550        0.36020
