13
809	1
C          0.82990       -0.04990       -0.01220
C          2.32800       -0.12870        0.06470
C          3.09780       -0.27450       -1.02720
F          2.52910       -0.35700       -2.26250
C          4.57060       -0.34650       -0.89300
C          5.36150       -0.49130       -1.96010
H          0.49420        0.91760        0.41530
H          0.39120       -0.87780        0.58250
H          0.44960       -0.12500       -1.05250
H          2.79080       -0.06380        1.04590
H          5.02530       -0.28080        0.09200
H          4.94810       -0.56090       -2.96150
H          6.43800       -0.54110       -1.83220
