17
6148	1
C          0.92390       -0.03680        0.08760
C          2.42890       -0.03160        0.08930
C          3.23510        1.04280        0.09200
C          2.85170        2.49770        0.09400
C          4.60880        0.59640        0.09270
C          4.62100       -0.77340        0.09040
C          3.22500       -1.31660        0.08790
H          0.47270        0.97120        0.08890
H          0.56240       -0.57470        0.98850
H          0.56440       -0.57160       -0.81590
H          1.76100        2.67120        0.09310
H          3.27690        2.98670       -0.80710
H          3.27500        2.98370        0.99760
H          5.48870        1.22620        0.09470
H          5.52210       -1.37210        0.09030
H          3.02650       -1.91750        1.00020
H          3.02850       -1.91440       -0.82680
