12
1836	1
C          0.43260        1.45790        0.55790
C          0.93580        0.41130       -0.42190
N          0.88950       -0.95370        0.03650
C         -0.41520       -1.32440        0.31970
N         -1.23940       -0.38480        0.11550
C         -0.57970        0.81580       -0.37340
H          0.71580        2.49130        0.26980
H          0.39130        1.11530        1.61440
H          1.28620        0.59740       -1.46060
H          1.70800       -1.57190        0.12720
H         -0.70460       -2.30200        0.68100
H         -0.85540        1.18670       -1.38470
