16
772	1
C          0.79610        0.05580       -0.16210
C          2.29570       -0.09730       -0.13350
C          2.99110       -1.15700        0.35520
C          2.35540       -2.38970        0.96310
C          4.50270       -1.12730        0.29340
O          5.04750       -1.23090        1.58030
H          0.52240        0.96860        0.40650
H          0.21490       -0.77990        0.25770
H          0.47350        0.18850       -1.21560
H          2.85460        0.73630       -0.55030
H          1.25520       -2.40000        0.99550
H          2.71080       -2.50610        2.00820
H          2.67190       -3.28150        0.38280
H          4.89990       -0.21400       -0.20660
H          4.85460       -1.99010       -0.31030
H          4.91900       -0.34680        2.01360
