9
6219	2
O          1.04950        0.06040        0.06100
C          2.39380        0.02890        0.06140
O          3.16960        1.08660        0.06130
N          4.42560        0.73290        0.06180
C          4.46910       -0.61720        0.06220
C          3.17900       -1.09230        0.06190
F          2.77530       -2.38590        0.06220
H          0.57810        0.90470        0.06060
H          5.37770       -1.20410        0.06260
