19
988	1
C          4.54490       -1.56730       -0.80760
O          4.01300       -0.34720       -0.44050
C          4.31810        0.33780        0.69770
C          5.19710       -0.11350        1.61510
C          5.50610        0.67840        2.86350
C          5.12610       -0.13960        4.10040
C          6.99370        1.03870        2.89070
H          4.10850       -1.87410       -1.78010
H          4.29480       -2.34030       -0.04970
H          5.64680       -1.48750       -0.92540
H          3.82380        1.29020        0.86220
H          5.70440       -1.06270        1.47380
H          4.92080        1.62520        2.88210
H          5.69940       -1.09140        4.13630
H          4.04070       -0.37650        4.08130
H          5.33900        0.44030        5.02380
H          7.62260        0.12190        2.89060
H          7.22790        1.63200        3.80030
H          7.25340        1.65050        2.00020
