9
950	1
O          1.18160        0.01180        0.31170
C          2.35290       -0.07490       -0.01880
C          3.13850       -1.34460       -0.08130
C          4.41850       -0.70130       -0.53950
N          4.30410        0.56660       -0.67280
O          3.09790        0.97660       -0.37460
H          2.73420       -2.05270       -0.83450
H          3.24480       -1.82270        0.91490
H          5.34120       -1.22910       -0.73950
