16
446	1
C          3.44090        0.20180       -1.07350
C          2.87600        0.77270        0.22950
C          3.20720       -0.09810        1.46250
C          2.55840        0.49980        2.71720
F          2.68720       -1.36870        1.27170
C          4.69810       -0.21020        1.66950
O          5.37640        0.78610        1.86870
H          3.15530        0.86080       -1.92030
H          3.03140       -0.81300       -1.26270
H          4.54900        0.14650       -1.03330
H          1.77140        0.84330        0.12080
H          3.27480        1.80120        0.37300
H          1.45570        0.55330        2.59170
H          2.94190        1.52460        2.91280
H          2.77560       -0.13670        3.60200
H          5.17660       -1.18380        1.63920
