14
373	1
C          0.92530       -0.07390       -0.10300
C          2.42280        0.07170        0.05790
C          3.05090        1.01730       -0.66920
C          3.16590       -0.83380        1.01580
N          4.57450       -0.73440        1.20060
N          2.53110       -1.72720        1.69510
H          0.50230        0.64840       -0.83420
H          0.42480        0.10340        0.87200
H          0.68490       -1.09610       -0.46340
H          2.49050        1.65250       -1.34880
H          4.11450        1.19100       -0.61800
H          5.15400       -0.05180        0.69990
H          5.04620       -1.36860        1.86210
H          1.51480       -1.87160        1.62710
