12
52	1
F          2.57990       -0.44350        1.26990
C          2.05900       -0.11760        0.02970
F          0.77440       -0.62120       -0.06120
F          2.01060        1.25960       -0.09750
C          2.91930       -0.71810       -1.08160
C          4.33370       -0.20430       -1.00840
C          4.88870        0.46950       -2.02030
H          2.45620       -0.47340       -2.06310
H          2.93790       -1.82370       -0.97470
H          4.91770       -0.38810       -0.11120
H          4.33330        0.66970       -2.93150
H          5.91040        0.82580       -1.93740
