15
3500	2
C          1.05080        0.05000       -0.70120
C          2.44890       -0.21700       -0.12410
O          3.39210        0.64490       -0.71510
C          2.45380       -0.12810        1.39810
N          3.21070        0.70790        2.02360
N          1.61970       -1.00190        2.14890
O          1.61240       -0.95170        3.48910
H          1.07680       -0.05230       -1.80680
H          0.71280        1.07690       -0.44480
H          0.31070       -0.67640       -0.30640
H          2.73370       -1.25480       -0.40010
H          3.05340        1.57530       -0.63290
H          3.84400        1.35930        1.54020
H          1.03680       -1.70270        1.66840
H          0.85430       -0.35490        3.71720
