8
5902	1
O          1.26290       -0.00540        0.32980
C          2.43790        0.05140        0.00570
O          3.19640       -1.00680       -0.33530
N          4.42250       -0.59080       -0.63050
C          4.53680        0.68620       -0.50890
C          3.26310        1.22320       -0.08550
O          2.96560        2.38520        0.13820
H          5.45020        1.23320       -0.70030
