18
4080	1
C          1.03360        0.33630        1.08950
C          2.19680       -0.03980        0.16640
C          2.99520        1.13320       -0.45240
N          4.12690        0.76500       -1.29950
C          2.33390        2.41790       -0.87790
C          3.22760        2.37700        0.39520
O          4.44000        3.03030        0.14370
H          0.56460       -0.59190        1.47880
H          0.25240        0.90200        0.54330
H          1.39180        0.92830        1.95680
H          1.79760       -0.66420       -0.66120
H          2.90760       -0.66130        0.75220
H          3.77270        0.19310       -2.09970
H          4.78790        0.17760       -0.74210
H          1.25970        2.51380       -0.62250
H          2.81660        3.04180       -1.66190
H          2.59340        2.82090        1.19210
H          5.11060        2.54930        0.69360
