12
993	1
C          1.09560       -0.07860       -0.19490
C          2.41130       -0.09610        0.02580
C          3.28410       -1.31870        0.08870
N          4.55570       -0.67720        0.34740
N          4.45500        0.68640        0.42450
C          3.25640        1.06650        0.24860
H          0.55500       -1.00680       -0.35010
H          0.55540        0.86260       -0.22100
H          3.30200       -1.86500       -0.87800
H          2.99770       -1.98950        0.92610
H          5.44770       -1.17890        0.46320
H          2.94690        2.10310        0.26790
