14
1570	1
O          2.44440        1.13620       -0.07840
C          2.20550       -0.05070        0.07350
C          3.01940       -1.07890       -0.65240
C          4.48080       -1.23860       -0.23320
C          4.30910       -2.73850       -0.48820
C          2.80530       -2.54530       -0.27500
H          1.39960       -0.35620        0.73280
H          2.96100       -0.97220       -1.76190
H          4.57000       -1.08270        0.86860
H          5.26340       -0.68590       -0.79480
H          4.85540       -3.45960        0.15600
H          4.49030       -2.93610       -1.57160
H          2.60010       -2.62320        0.81950
H          2.09660       -3.15560       -0.87400
