15
1036	1
C          0.90140        0.04870       -0.06850
N          2.33990        0.12750        0.10810
C          2.93760       -0.73790        1.10090
C          3.09990        0.73460       -0.94390
C          4.44970        0.75440       -1.03310
C          5.08670        1.40730       -2.15320
N          5.60440        1.92860       -3.04780
H          0.39540       -0.01040        0.91090
H          0.64320       -0.85670       -0.65300
H          0.49490        0.93450       -0.59290
H          2.19860       -0.95750        1.90170
H          3.80000       -0.25890        1.58590
H          3.23560       -1.69500        0.64310
H          2.52740        1.21830       -1.71500
H          5.09830        0.29980       -0.29930
