16
2038	1
C          0.95300        0.11500       -0.15370
C          2.45420       -0.13400       -0.26940
N          3.21110        0.93570        0.35560
C          4.64140        0.95270        0.39100
N          5.33870        0.00550       -0.13800
N          5.30710        2.03700        1.02290
O          6.64680        2.08480        1.06410
H          0.39790       -0.71560       -0.63850
H          0.68310        1.06770       -0.65720
H          0.65510        0.16880        0.91510
H          2.72120       -0.19840       -1.34650
H          2.69310       -1.09870        0.22830
H          2.70410        1.71970        0.79490
H          4.91390       -0.80470       -0.60880
H          4.76020        2.80350        1.44210
H          6.88930        1.68180        1.93690
