15
2128	2
O          0.36220        0.11840        0.45870
C          1.71310        0.42230        0.23080
C          2.65290       -0.67160        0.71530
N          2.19420       -1.73460        1.28240
N          4.06590       -0.54360        0.54960
C          4.67310        0.58980       -0.06680
C          6.00020        0.66280       -0.19820
H          0.16600        0.37390        1.39810
H          1.97010        1.38900        0.72090
H          1.85090        0.55860       -0.86220
H          1.18900       -1.89720        1.43430
H          4.66970       -1.30760        0.89220
H          4.06970        1.41050       -0.43910
H          6.64000       -0.13740        0.16110
H          6.45220        1.52990       -0.66900
