14
1068	2
N          1.05440        0.01710       -0.66950
C          2.28580        0.05060       -0.10960
O          2.78870       -0.98370        0.30570
C          3.01730        1.33750       -0.00280
C          4.24420        1.41360        0.54790
C          5.01510        2.70650        0.67230
O          4.31090        3.81230        0.17120
H          0.54130       -0.87370       -0.74670
H          0.61480        0.87880       -1.02510
H          2.53480        2.23210       -0.38350
H          4.71920        0.51360        0.92760
H          5.99630        2.60780        0.15490
H          5.23200        2.88890        1.74530
H          4.46100        3.82550       -0.81030
