15
3120	1
C          1.10420        0.28850       -0.01270
C          2.62960        0.20360       -0.02420
F          3.11450        0.75670        1.14940
C          3.10830       -1.25340       -0.15050
F          2.62010       -1.81140       -1.32110
C          4.63900       -1.35820       -0.14510
O          5.20030       -0.64300       -1.21350
H          0.79010        1.34960        0.08090
H          0.69140       -0.28170        0.84680
H          0.68350       -0.11990       -0.95590
H          3.00970        0.79870       -0.88280
H          2.71670       -1.84010        0.70910
H          4.94990       -2.42690       -0.19160
H          5.04510       -0.95250        0.80580
H          5.11740       -1.21840       -2.01820
