14
5087	2
O          1.53030        0.02270        1.11140
C          2.43700       -0.02070        0.29410
C          3.05610       -1.35700       -0.06840
O          3.92330       -1.28650       -1.19160
C          4.79160       -0.18570       -1.06590
C          3.99890        1.11720       -1.20780
N          2.86960        1.12240       -0.30030
H          2.22440       -2.03480       -0.35450
H          3.57330       -1.80510        0.80780
H          5.57770       -0.23350       -1.84850
H          5.31640       -0.22180       -0.08230
H          3.62450        1.26010       -2.24390
H          4.68840        1.95200       -0.95810
H          2.38260        2.01220       -0.11340
