13
2928	1
F          3.55560       -0.33110        1.03820
C          2.46440        0.13950        0.32700
C          2.62840       -0.02140       -1.16160
F          1.61750        0.40630       -1.96620
C          3.73220       -0.56850       -1.70300
C          3.87590       -0.71850       -3.16810
C          4.97500       -1.26260       -3.69630
H          2.32510        1.21520        0.56120
H          1.56130       -0.41670        0.65340
H          4.54080       -0.91080       -1.06300
H          3.08320       -0.38510       -3.83180
H          5.78780       -1.60710       -3.06360
H          5.06490       -1.36540       -4.77290
