15
809	1
N          2.09920       -4.56610        0.54450
C          2.78570       -3.40590        0.41770
O          2.17380       -2.35620        0.27370
N          4.14680       -3.40950        0.45060
C          4.91120       -2.18230        0.31790
C          6.38850       -2.47140        0.36160
C          7.18180       -1.93850        1.29590
H          1.06860       -4.56680        0.52000
H          2.59570       -5.46100        0.66670
H          4.64360       -4.30640        0.57320
H          4.62150       -1.48150        1.13250
H          4.67940       -1.70430       -0.65820
H          6.81860       -3.12990       -0.38740
H          6.78300       -1.27640        2.05830
H          8.24270       -2.16680        1.29920
