11
1467	1
O          1.73090       -0.92760        1.05070
C          2.33900       -0.06480        0.10710
C          2.87910        1.10260        0.85820
C          4.17230        1.46100        0.86780
C          4.64090        2.57090        1.59270
N          5.02460        3.47950        2.18600
H          1.35660       -1.67430        0.55360
H          1.58330        0.26690       -0.61130
H          3.12040       -0.61600       -0.42520
H          2.15090        1.67430        1.43150
H          4.90890        0.89280        0.31090
