15
3101	1
C          1.63100       -0.73780        0.19900
C          3.11390       -0.36670        0.16680
F          3.61890       -0.67980       -1.08470
C          3.33240        1.12960        0.45830
O          2.82630        1.43550        1.73300
C          4.82200        1.48680        0.40440
F          4.99330        2.83770        0.64780
H          1.51280       -1.82030       -0.01870
H          1.07080       -0.15810       -0.56530
H          1.19690       -0.53350        1.20060
H          3.64950       -0.97570        0.92780
H          2.79050        1.71380       -0.32340
H          2.57750        2.39670        1.72420
H          5.23940        1.25530       -0.59840
H          5.38480        0.90940        1.16890
