16
2767	1
C          0.75600        0.23710        0.17010
C          2.24500        0.26580        0.41050
C          3.17820       -0.05040       -0.73810
C          2.95930       -1.45990       -1.21740
C          2.57000       -1.72340       -2.46840
C          2.72320        0.57980        1.62910
F          4.06020        0.61850        1.87520
H          0.44570       -0.77700       -0.15730
H          0.49650        0.96740       -0.62450
H          0.17810        0.49590        1.08330
H          4.24420        0.04000       -0.44110
H          2.99620        0.68660       -1.55070
H          3.12310       -2.28290       -0.52760
H          2.39780       -0.92290       -3.18140
H          2.42080       -2.75090       -2.78360
H          2.04320        0.80890        2.44400
