7
56	1
C          0.92250        0.11500        0.06770
C          2.26040        0.05930        0.06000
C          2.96340       -1.14700       -0.10590
N          3.53890       -2.13450       -0.24170
H          0.40640        1.06120        0.19780
H          0.31130       -0.77540       -0.05480
H          2.84400        0.96470        0.18450
