16
1781	1
C          0.41790        1.36540        0.31900
C          1.37940        0.38210       -0.32960
C          1.04780       -1.04280        0.14460
C         -0.43000       -1.35430        0.06940
C         -1.36220       -0.39710       -0.09680
C         -1.01270        1.07260       -0.16340
H          0.68110        2.41570        0.06980
H          0.48370        1.24200        1.42320
H          2.43490        0.61710       -0.07410
H          1.26310        0.45620       -1.43400
H          1.36660       -1.19930        1.19740
H          1.61740       -1.74610       -0.49950
H         -0.74740       -2.38870        0.15920
H         -2.40390       -0.68740       -0.19290
H         -1.70420        1.65700        0.48010
H         -1.15590        1.40020       -1.21540
