17
1796	1
C          1.18250       -0.14400       -0.05190
C          2.62210        0.30560        0.21590
C          2.83760        1.74070       -0.30110
C          4.26070        2.18910       -0.11960
O          4.93860        2.49710       -1.08680
C          2.89770        0.22170        1.70100
C          3.85040       -0.57570        2.19410
H          0.96570       -0.11040       -1.14100
H          0.45830        0.51350        0.47650
H          1.03780       -1.18890        0.29760
H          3.30000       -0.37560       -0.34750
H          2.16740        2.44640        0.23660
H          2.58320        1.77770       -1.38390
H          4.69070        2.24610        0.87510
H          2.30670        0.82500        2.38480
H          4.45940       -1.19120        1.53910
H          4.02410       -0.61340        3.26450
