16
162	1
C          1.50630        0.08760        0.43640
C          2.84320       -0.05070       -0.27520
O          3.85620        0.38560        0.55810
C          5.18560        0.40660        0.25230
C          6.13730        0.91890        1.29540
C          5.65750       -0.01260       -0.93920
H          0.68910       -0.26180       -0.22930
H          1.32460        1.15070        0.70220
H          1.50290       -0.52500        1.36290
H          2.82280        0.56380       -1.20180
H          3.00190       -1.11940       -0.53820
H          5.87310        1.96660        1.54940
H          7.19430        0.89630        0.95260
H          6.05120        0.29370        2.20850
H          4.99810       -0.38770       -1.71330
H          6.72140        0.01580       -1.15450
