11
212	1
F          2.53180        0.46170        1.35180
C          2.49430       -0.19090        0.16040
C          1.91050       -1.39320        0.09800
C          3.11010        0.46770       -1.04570
C          4.56610        0.55150       -0.89450
C          5.76870        0.62640       -0.76980
H          1.47750       -1.82420        0.99860
H          1.86650       -1.96530       -0.82380
H          2.68600        1.49040       -1.14700
H          2.88800       -0.08980       -1.98210
H          6.82080        0.65360       -0.66180
