11
5488	1
N          0.91460        0.01270        0.06490
C          2.33090        0.02620        0.06900
C          3.03440        1.22870        0.07260
N          4.39070        1.20780        0.07640
N          5.05730        0.05220        0.07680
N          4.41290       -1.11600        0.07340
C          3.05720       -1.16280        0.06950
H          0.38290        0.89550        0.06460
H          0.39990       -0.88010        0.06230
H          2.51040        2.17570        0.07230
H          2.55140       -2.11950        0.06680
