16
232	1
C          0.82580       -0.34170        1.57880
N          2.25240       -0.50480        1.71910
C          3.06180       -0.22820        0.75540
N          4.47060       -0.39780        0.91790
C          5.36960       -0.08260       -0.17510
C          5.01350       -0.88480        2.17270
H          0.33020       -0.63730        2.52610
H          0.44610       -0.98730        0.75800
H          0.58190        0.72050        1.36200
H          2.66940        0.13790       -0.19150
H          4.81790        0.27780       -1.06980
H          5.94280       -0.98970       -0.46130
H          6.07820        0.71210        0.14080
H          4.60570       -1.89420        2.39280
H          4.74120       -0.19040        2.99560
H          6.12190       -0.95770        2.12950
