11
1028	1
F          1.60050       -0.46470       -1.02830
C          2.46020       -0.03150       -0.03680
F          3.52680       -0.91060        0.04850
C          2.89970        1.37530       -0.34350
C          4.18870        1.70870       -0.51570
C          4.57310        3.09890       -0.81440
O          5.74870        3.38670       -0.96830
H          1.92090       -0.03520        0.93300
H          2.13220        2.14060       -0.42550
H          4.96940        0.95780       -0.43750
H          3.81760        3.87430       -0.89940
