11
811	1
C          0.96150        0.02140        0.06920
C          2.45770       -0.06970       -0.02460
C          3.16950        0.66740       -0.89360
F          2.54750        1.53850       -1.73480
C          4.63740        0.54300       -0.94860
O          5.27870        1.21500       -1.73990
H          0.67960        0.33050        1.09700
H          0.52250       -0.97610       -0.14000
H          0.53130        0.75190       -0.64770
H          2.96840       -0.76100        0.64070
H          5.15750       -0.14450       -0.28840
