14
4114	1
O          2.93080       -0.49180       -1.33720
C          2.46970       -0.00400       -0.10570
C          2.83250       -0.94130        1.05570
F          2.49620       -0.53100        2.33590
C          2.98290       -2.43350        0.85390
C          4.22950       -1.53260        0.98270
O          4.83510       -1.79780        2.21450
H          2.64240        0.16800       -2.02000
H          1.36220        0.09280       -0.13300
H          2.92670        0.98970        0.09650
H          2.58640       -2.67840       -0.15380
H          2.57940       -2.92700        1.76450
H          4.82300       -1.75680        0.07090
H          5.22260       -0.93190        2.50230
