13
6007	1
N          1.10330       -0.03280       -0.03490
C          2.51560        0.01540       -0.00320
C          3.28310        1.15750       -0.09910
C          4.60370        0.74090       -0.02110
C          4.58220       -0.63760        0.11890
N          3.30680       -1.06190        0.12670
O          2.89910       -2.34820        0.25030
H          0.55680        0.83450       -0.13710
H          0.61130       -0.93420        0.04360
H          2.92890        2.17370       -0.21160
H          5.48190        1.37120       -0.06120
H          5.44430       -1.28540        0.20900
H          2.84490       -2.69070       -0.67870
