11
4810	1
N          0.90760       -0.03490        0.03640
C          2.31870        0.00780        0.03560
N          3.03930        1.14490        0.03510
C          4.30860        0.68490        0.03450
O          5.39690        1.47510        0.03380
N          4.36100       -0.66120        0.03450
N          3.10800       -1.07910        0.03530
H          2.81140       -2.08010        0.03550
H          0.36330        0.83950        0.03670
H          0.41610       -0.94010        0.03670
H          5.30810        2.43830        0.03370
