14
3669	1
C          1.16190        0.63100        0.67130
C          2.38920        0.05460       -0.03520
C          2.06250       -1.09750       -0.95560
O          0.90750       -1.48330       -1.07920
C          3.15550       -1.75940       -1.71040
F          4.43240       -1.31600       -1.55910
C          2.91940       -2.78400       -2.53870
H          1.47160        1.47040        1.32900
H          0.67480       -0.14790        1.29600
H          0.43240        1.01490       -0.07350
H          3.10960       -0.29570        0.73490
H          2.86830        0.86240       -0.62920
H          1.91540       -3.16900       -2.68850
H          3.74120       -3.24630       -3.07610
