8
4488	1
F          0.93090       -0.04110       -0.08090
C          2.28540       -0.06490       -0.08660
N          3.06760        1.03640       -0.09200
N          4.31630        0.60000       -0.09650
H          5.16580        1.20700       -0.10130
C          4.25840       -0.75080       -0.09380
O          5.23000       -1.48460       -0.09660
O          3.01540       -1.15980       -0.08770
