16
1979	2
C          1.33230       -0.88410       -0.63510
N          2.71080       -0.44950       -0.57250
C          3.21230        0.18620        0.52010
O          2.49430        0.40780        1.48690
C          4.66140        0.61900        0.52890
C          5.09240        1.32310        1.82010
O          4.96260        0.45110        2.90910
H          1.13580       -1.37740       -1.61050
H          0.65350       -0.01050       -0.53500
H          1.12560       -1.61070        0.17930
H          3.32540       -0.62940       -1.38120
H          4.82180        1.31570       -0.32190
H          5.30460       -0.27470        0.37720
H          4.46320        2.22860        1.97410
H          6.15800        1.62580        1.71400
H          5.24820        0.96540        3.70830
