11
602	1
C          0.98720       -0.07530       -0.01700
N          2.44610       -0.10820        0.03530
C          3.10480       -0.74640        1.04850
O          2.49400       -1.31070        1.94420
C          3.17150        0.50800       -0.94270
O          2.61540        1.08830       -1.86390
H          0.51140       -0.60990        0.83170
H          0.63400       -0.55330       -0.95580
H          0.63400        0.97790        0.00880
H          4.19170       -0.76140        1.07240
H          4.25820        0.49150       -0.91650
