14
1267	1
C          3.62720       -1.86000        0.36740
O          3.16550       -0.61110        0.83240
C          3.33550        0.36810       -0.17050
O          4.66000        0.76580       -0.22310
C          5.16560        1.72440       -1.04930
C          4.41670        2.41060       -1.92590
H          3.54060       -2.59370        1.19490
H          4.70220       -1.82000        0.08290
H          2.99740       -2.23480       -0.46940
H          2.70140        1.23920        0.10050
H          2.98360        0.00880       -1.16650
H          6.22720        1.94270       -0.99430
H          3.35120        2.23870       -2.02770
H          4.88130        3.16210       -2.55600
