17
474	1
N          1.35120        0.10440        0.80650
C          2.72960        0.22780        0.34130
C          3.13240       -0.98710       -0.52200
N          2.26310       -1.12240       -1.69550
C          4.61280       -0.90930       -0.94740
N          4.89860        0.27830       -1.75070
H          1.11700        0.94770        1.37870
H          1.27260       -0.73320        1.42810
H          3.40650        0.30040        1.22210
H          2.82930        1.16310       -0.25170
H          3.02660       -1.90690        0.09590
H          2.23260       -0.22800       -2.23610
H          1.28850       -1.34410       -1.38830
H          4.88670       -1.82330       -1.52020
H          5.24380       -0.88220       -0.03160
H          4.43410        0.18940       -2.68260
H          5.92850        0.31480       -1.92760
