15
405	1
C          0.92270       -0.08620        0.19020
C          2.44890       -0.06810        0.08050
O          2.90200       -0.12720       -1.24870
C          3.22110        0.97330        0.87760
N          4.15560       -0.03910        1.38120
C          3.21810       -1.07070        0.92300
H          0.49780        0.79740       -0.33080
H          0.60330       -0.05970        1.25370
H          0.52430       -1.00950       -0.28060
H          2.67860        0.74490       -1.66740
H          2.61780        1.37560        1.72700
H          3.70630        1.76990        0.27340
H          4.18880       -0.01620        2.42800
H          2.61700       -1.43460        1.79130
H          3.69890       -1.89430        0.35200
