14
236	1
C          0.93410        0.07150       -0.03180
N          2.37610        0.02770        0.04400
N          2.99100       -0.89760        0.88360
C          3.15140        0.93160       -0.74050
N          4.43760        0.91030       -0.68080
N          5.20260        1.77430       -1.42850
H          0.48420       -0.69250        0.63790
H          0.60570       -0.13100       -1.07320
H          0.57170        1.07410        0.27960
H          3.57370       -0.37860        1.57980
H          3.60530       -1.51460        0.30430
H          2.64730        1.64320       -1.39100
H          6.22890        1.73770       -1.35730
H          4.76550        2.46180       -2.06140
