10
6078	1
N          1.14800       -0.01700        0.32290
N          2.54350       -0.03450        0.17090
N          3.31420        1.02920        0.04070
N          4.57340        0.62210       -0.07690
N          4.62040       -0.70670       -0.02250
C          3.34500       -1.10150        0.13300
O          2.93610       -2.37950        0.23360
H          0.81990        0.97530        0.28950
H          0.73030       -0.52650       -0.48850
H          3.57340       -3.10580        0.19430
