13
2580	2
N          0.61550        0.36970        0.08860
C          1.97490       -0.03150        0.07940
C          2.95790        0.87730        0.18250
C          4.39210        0.48660        0.17570
O          4.70610       -0.69050        0.07450
C          5.48020        1.51850        0.29210
F          4.96900        2.79990        0.39880
H         -0.12730       -0.33910        0.00860
H          0.35600        1.36370        0.17430
H          2.20970       -1.08810       -0.01250
H          2.69570        1.92720        0.27320
H          6.13060        1.46910       -0.60630
H          6.09430        1.30480        1.19190
