17
2518	1
C          0.80490        0.13510       -0.14910
N          2.24430        0.04540       -0.10650
C          2.97430        1.05240        0.23010
N          4.40150        0.95200        0.26890
C          5.07640       -0.29580       -0.07190
C          5.14910        2.11460        0.65280
C          6.48860        2.13380        0.72300
H          0.38780       -0.84400       -0.46230
H          0.49150        0.90980       -0.88140
H          0.40770        0.38940        0.85700
H          2.49880        1.99690        0.48980
H          4.36960       -1.10460       -0.34800
H          5.66750       -0.65340        0.79770
H          5.75110       -0.13380       -0.93910
H          4.61590        3.02890        0.90070
H          7.09200        1.26400        0.49180
H          6.99600        3.04590        1.02040
