14
1825	1
C          0.75090        1.27260       -0.17550
C         -0.69590        1.18710        0.23810
C         -1.12030       -0.19000       -0.24780
C         -0.68890       -1.38350        0.63700
C          0.25760       -0.85170       -0.38870
O          1.26480        0.00280        0.10370
H          1.27980        2.07070        0.38710
H          0.84860        1.47650       -1.26840
H         -1.31330        2.01990       -0.15950
H         -0.75080        1.20720        1.34920
H         -1.42630       -0.25050       -1.31480
H         -1.35320       -2.22620        0.35320
H         -0.62060       -1.04330        1.69200
H          0.47740       -1.58130       -1.19840
