12
4656	1
O          0.94450       -0.06170        0.05280
C          2.28540       -0.01480       -0.05170
C          3.06590        1.12630       -0.10560
C          4.37360        0.68740       -0.21140
N          4.39120       -0.65970       -0.22030
O          5.49680       -1.43620       -0.31570
C          3.12570       -1.10300       -0.12480
H          0.42090        0.75050        0.09910
H          2.72510        2.15260       -0.07270
H          5.25470        1.31210       -0.27760
H          5.78470       -1.58910        0.62090
H          2.83720       -2.14600       -0.10980
