10
5329	2
O          0.96710       -0.05070       -0.13410
C          2.17180       -0.07500        0.03620
N          2.87550        1.08460        0.07160
C          4.21890        1.05820        0.26150
N          4.85950       -0.12920        0.41610
H          5.89340       -0.15000        0.56220
C          4.15480       -1.28940        0.38050
N          2.81140       -1.26160        0.19060
H          4.77730        1.98470        0.28920
H          4.66200       -2.23740        0.50340
