14
2047	1
C          3.05920        1.44320        1.00730
N          2.94570        0.14170        0.35430
N          3.45660        0.23920       -0.93780
C          4.50840       -0.52420       -1.33930
O          4.92640       -0.41350       -2.48290
N          5.10110       -1.40550       -0.48940
O          6.13600       -2.15340       -0.90160
H          2.65460        1.37440        2.03890
H          2.48440        2.21520        0.44980
H          4.12660        1.74630        1.06930
H          1.93560       -0.12150        0.28280
H          3.02550        0.89790       -1.60700
H          4.76160       -1.51690        0.47710
H          6.94300       -1.65960       -0.60460
