18
4163	1
C          1.25680        0.25800       -1.45910
C          2.15630        0.02590       -0.22950
O          2.89400       -1.15350       -0.42490
C          3.12670        1.17320        0.19960
C          4.00230        0.91340        1.42940
C          3.66830        2.08980       -0.80010
N          2.62580        2.55140        0.17150
H          0.62920       -0.64360       -1.62420
H          1.86340        0.41890       -2.37400
H          0.56050        1.10740       -1.31800
H          1.47760       -0.15150        0.63220
H          3.53190       -0.98400       -1.16750
H          4.68170        0.05810        1.23210
H          3.35680        0.66660        2.29820
H          4.62000        1.79860        1.69600
H          3.24400        2.16740       -1.82370
H          4.60370        2.63910       -0.56240
H          1.71630        2.61670       -0.33130
