15
3014	1
C          0.98420       -0.06460       -0.02960
C          2.42400        0.35920        0.07890
C          3.08550        0.48430        1.41640
C          2.44990        0.23250        2.56780
N          3.07110        0.61130       -1.01070
N          4.38850        1.00410       -1.00430
C          5.00020        1.24660       -2.10550
H          0.33620        0.66090        0.50540
H          0.85430       -1.07510        0.41150
H          0.66030       -0.10380       -1.09200
H          4.12540        0.79170        1.47070
H          1.41170       -0.07870        2.59300
H          2.98000        0.33980        3.50870
H          6.03940        1.55580       -2.08790
H          4.48840        1.14570       -3.05870
