13
973	1
N          0.95410       -0.01230       -0.26490
C          2.39960       -0.03950       -0.06140
C          2.85280       -1.35660        0.63980
N          3.41470       -0.86980        1.86980
N          3.34910        0.48130        1.97280
C          2.80520        0.99590        0.95080
H          0.69850       -0.76410       -0.94560
H          0.69050        0.90340       -0.69650
H          2.94210        0.12480       -1.01890
H          3.63620       -1.87980        0.05070
H          2.00200       -2.03720        0.86020
H          3.82770       -1.46730        2.60010
H          2.66130        2.06260        0.84080
