12
3682	4
N          0.71790       -0.53840       -0.14530
C          2.06480       -0.36640       -0.11600
O          2.56630        0.17070        0.86060
C          2.96300       -0.80930       -1.23520
N          2.50730       -1.38460       -2.29590
N          4.36560       -0.58930       -1.12620
O          5.19170       -0.96620       -2.11350
H          0.14460       -0.21650        0.64890
H          0.23290       -0.98100       -0.93390
H          1.51420       -1.58380       -2.46080
H          4.75850       -0.12500       -0.29420
H          5.50730       -1.86860       -1.85090
