20
168	1
C          1.45820        1.12200        0.17880
C          2.95890        0.80120        0.22070
N          3.40620        0.67650        1.60880
C          3.24900       -0.49440       -0.57260
C          4.73830       -0.89450       -0.68980
C          5.58970        0.14310       -1.44080
O          5.28680       -1.21050        0.56700
H          1.25390        2.06690        0.72500
H          0.86910        0.30520        0.64700
H          1.12090        1.24950       -0.87140
H          3.49430        1.64920       -0.25610
H          2.87390       -0.08210        2.09420
H          3.24260        1.57680        2.11540
H          2.85510       -0.36800       -1.60530
H          2.69510       -1.33860       -0.10540
H          4.77470       -1.82330       -1.29980
H          5.63690        1.10410       -0.88940
H          5.16670        0.32750       -2.45050
H          6.62540       -0.23920       -1.55750
H          5.63400       -0.37870        0.98130
