10
6021	1
O          1.04030        0.13670       -0.29200
N          2.38310        0.04300       -0.14110
C          3.26030        1.06000       -0.10720
N          4.52740        0.61370        0.05210
C          4.42270       -0.73380        0.11760
C          3.09680       -1.07920       -0.00310
F          2.57840       -2.33150        0.01180
H          0.68320        0.21150        0.63000
H          2.98970        2.10390       -0.19630
H          5.25820       -1.40910        0.24370
