22
412	1
C          3.04880        0.36360        1.31730
C          2.44970        0.05390       -0.05880
C          2.85010        1.04260       -1.20100
C          2.17070        0.57990       -2.51080
C          2.31920        2.46040       -0.89160
N          4.32060        1.14060       -1.38830
C          5.02640       -0.11030       -1.69430
H          2.69970       -0.39870        2.04540
H          2.72210        1.35590        1.68720
H          4.15670        0.32410        1.28980
H          1.34200        0.04840        0.04490
H          2.74890       -0.97940       -0.33480
H          1.06440        0.58580       -2.40090
H          2.46010       -0.45510       -2.78370
H          2.44170        1.25540       -3.35050
H          1.21670        2.45030       -0.75010
H          2.55860        3.15260       -1.72770
H          2.78590        2.88040        0.02270
H          4.76890        1.57050       -0.54600
H          4.66340       -0.56140       -2.63790
H          4.94780       -0.83670       -0.85960
H          6.10450        0.11230       -1.83990
