12
3016	1
C          0.87770        0.33950       -0.25810
C          2.37360        0.15640       -0.15190
N          2.90450       -0.76940        0.53660
N          2.14290       -1.66280        1.21620
C          2.75130       -2.56700        1.86990
C          3.24280        1.05080       -0.82400
N          3.94540        1.78150       -1.37300
H          0.39170       -0.58190       -0.61780
H          0.64350        1.15240       -0.97040
H          0.45380        0.60820        0.72330
H          2.20950       -3.30690        2.43180
H          3.84770       -2.59580        1.86230
