10
4299	2
O          1.19230       -0.08480        0.41350
C          2.36410        0.00880        0.08430
C          3.16590        1.28160        0.04100
O          4.39770        0.78740       -0.39440
C          4.31580       -0.54870       -0.57160
O          5.24700       -1.24160       -0.94880
N          3.10910       -1.02900       -0.29030
H          3.25570        1.73940        1.04860
H          2.74550        2.00160       -0.69240
H          2.80840       -2.01320       -0.35040
