13
5946	1
C          0.95890        0.08900        0.07680
C          2.45240        0.05620        0.08050
C          3.30950        1.13910        0.08420
O          4.55500        0.70510        0.08670
C          4.55780       -0.61210        0.08490
C          3.25450       -1.05710        0.08100
O          2.84130       -2.33840        0.07820
H          0.59320        1.13750        0.07730
H          0.57300       -0.42760        0.98030
H          0.57760       -0.42510       -0.83000
H          3.02520        2.18310        0.08490
H          5.44880       -1.22580        0.08630
H          3.47880       -3.06610        0.07880
