18
172	1
C          2.76230        0.69380       -1.50410
C          2.65930        0.27080       -0.03200
O          1.31320        0.30630        0.37200
C          3.25540       -1.12280        0.27870
C          4.77080       -1.24400        0.03200
C          5.28810       -2.59850        0.51250
F          5.06290       -1.12580       -1.31470
H          2.28340        1.68710       -1.63700
H          2.24570       -0.04050       -2.15820
H          3.81680        0.79690       -1.82520
H          3.20490        1.02490        0.57610
H          0.81710       -0.36410       -0.16780
H          2.71860       -1.90360       -0.30390
H          3.07280       -1.31430        1.35950
H          5.30270       -0.44610        0.59430
H          4.78690       -3.42240       -0.03930
H          5.09920       -2.72210        1.60030
H          6.38240       -2.66560        0.33560
