12
842	1
F          1.01960       -0.67440        0.54860
C          2.14610       -0.05640        0.03100
C          2.66220       -0.74670       -1.23690
F          3.83200       -0.26710       -1.80140
C          2.68110       -2.25710       -1.16090
C          1.73870       -1.53440       -2.14240
H          2.94480       -0.06250        0.80180
H          1.89530        0.99730       -0.21010
H          1.99490       -2.80670       -0.48210
H          3.37630       -2.82630       -1.81370
H          0.69920       -1.29440       -1.83410
H          2.08440       -1.32900       -3.17830
