13
5439	1
C          0.98460        0.00960        0.07200
C          2.48230       -0.03380        0.06750
N          3.15800        1.06560        0.07920
N          4.53770        1.06810        0.07560
C          5.21070       -0.03050        0.06040
O          4.57420       -1.22900        0.04740
C          3.19480       -1.36580        0.04930
H          0.61760        1.05830        0.08570
H          0.59960       -0.51470        0.97150
H          0.59470       -0.49280       -0.83780
H          6.29450        0.00240        0.05810
H          2.89560       -1.94910        0.94530
H          2.89100       -1.92690       -0.85920
