18
4577	1
C          0.97440       -0.01800       -0.05680
C          2.48580       -0.10710        0.14080
N          2.83520       -1.35940        0.84330
C          3.41940       -0.97180        2.14170
C          3.47760        0.50710        2.11810
C          4.03070        1.35520        3.22190
C          2.96640        0.98560        1.01580
H          0.62910       -0.86070       -0.69220
H          0.70850        0.93680       -0.55820
H          0.44950       -0.07100        0.92190
H          2.99700       -0.05110       -0.84700
H          3.57390       -1.85130        0.28690
H          4.43920       -1.40000        2.26630
H          2.76420       -1.30930        2.97230
H          4.39440        0.71540        4.05320
H          3.23890        2.03060        3.60920
H          4.87740        1.96340        2.84010
H          2.88940        2.04140        0.78670
