15
4356	1
C          1.12600        0.09290       -0.28280
N          2.52470        0.05150        0.06660
C          3.29750       -1.16560        0.21560
C          4.62490       -0.55340        0.57130
C          5.75290       -1.21730        0.82980
C          4.46230        0.89370        0.58390
N          3.26080        1.18400        0.29320
H          0.72840       -0.93520       -0.42060
H          0.99570        0.65900       -1.22860
H          0.55530        0.59410        0.52650
H          3.34600       -1.73050       -0.73970
H          2.89970       -1.79630        1.03900
H          5.76930       -2.30190        0.79380
H          6.66250       -0.67930        1.07790
H          5.22180        1.63280        0.80180
