16
282	1
C          1.04040       -0.05580       -0.09290
C          2.53940        0.05480        0.02950
C          3.08830        1.41260        0.40740
C          3.30190       -1.04590       -0.19850
C          4.80930       -1.12270       -0.12540
O          5.18580       -2.08830        0.81630
H          0.67940        0.64840       -0.87170
H          0.56890        0.20760        0.87710
H          0.70750       -1.07860       -0.37180
H          2.65940        1.71520        1.38570
H          2.77670        2.15430       -0.35760
H          4.18290        1.48180        0.50130
H          2.80040       -1.97390       -0.46090
H          5.33910       -0.17810        0.09080
H          5.18060       -1.44580       -1.12000
H          5.04740       -1.67900        1.71050
