19
3069	1
C          1.09070        0.43950        0.09140
C          2.55670       -0.02820        0.12060
C          3.21020        0.40640        1.44210
C          2.73750       -1.56130       -0.13360
N          2.04490       -2.39540        0.85410
C          2.29600       -1.98260       -1.54420
F          2.99650       -1.27360       -2.50410
H          1.04320        1.54130        0.22630
H          0.50180       -0.02800        0.90760
H          0.61380        0.20720       -0.88130
H          3.09930        0.50940       -0.68810
H          2.70340       -0.04520        2.31920
H          3.15530        1.51090        1.54810
H          4.28250        0.11630        1.45310
H          3.82590       -1.78600       -0.07140
H          1.01160       -2.24550        0.82140
H          2.40090       -2.21490        1.81820
H          1.20870       -1.82560       -1.69430
H          2.50460       -3.06420       -1.68820
