15
562	1
C          0.93510        0.02500        0.15980
C          2.46300       -0.02470        0.07830
C          2.91430       -1.41210       -0.43030
N          4.36410       -1.61170       -0.33780
C          2.94430        1.03800       -0.77260
C          3.34100        1.91380       -1.47400
H          0.55520       -0.75100        0.83300
H          0.47510       -0.12520       -0.82390
H          0.59320        0.99410        0.54100
H          2.85380        0.11830        1.09420
H          2.60500       -1.55370       -1.47330
H          2.43090       -2.19740        0.16200
H          4.83660       -0.87300       -0.86030
H          4.61280       -2.48710       -0.79610
H          3.69540        2.70180       -2.09800
