16
2912	1
C          1.02350       -0.06450        0.06930
C          2.50370        0.21300        0.16440
C          2.91870        1.46450        0.90870
F          2.36600        2.57190        0.29200
C          3.37570       -0.65680       -0.40730
C          4.85640       -0.52040       -0.39790
C          5.62190       -1.43970       -0.99290
H          0.51900        0.77500       -0.45320
H          0.59870       -0.16020        1.09050
H          0.79820       -0.99970       -0.48680
H          4.00560        1.62950        0.97990
H          2.53380        1.40660        1.94840
H          2.96930       -1.52750       -0.91710
H          5.35300        0.31110        0.08080
H          5.18180       -2.29850       -1.49130
H          6.70210       -1.33440       -0.98290
