13
5197	1
O          0.97930       -0.11320        0.03800
C          2.20140       -0.10770        0.03310
N          2.86990        1.07770        0.02160
C          4.32220        1.16360        0.01510
C          5.00310       -0.18060        0.02250
C          4.29700       -1.31500        0.03390
N          2.87840       -1.28420        0.03930
H          2.33080        1.95720        0.01710
H          4.65170        1.72930        0.91200
H          4.64460        1.71570       -0.89270
H          6.08790       -0.22480        0.01860
H          4.81360       -2.27000        0.03900
H          2.35900       -2.17510        0.04800
