16
1687	1
C          2.19240        1.37040       -0.20080
C          2.60500       -0.08040        0.01310
C          3.13930       -0.27470        1.43290
O          3.83140       -1.49840        1.54980
C          4.61060       -0.32380        1.60280
C          5.15710       -0.09220        3.00710
H          1.79050        1.49630       -1.22820
H          3.06950        2.04080       -0.07550
H          1.40500        1.65910        0.52800
H          3.36770       -0.35540       -0.74880
H          1.72020       -0.73680       -0.12930
H          2.48150       -0.12110        2.31500
H          5.27650       -0.26270        0.71600
H          4.38420       -0.25250        3.78970
H          5.53230        0.94920        3.08340
H          5.99960       -0.79060        3.19210
