13
409	1
O          2.54460        0.68550        1.18630
C          2.36440       -0.08230        0.02800
C          2.95900       -1.48080        0.22170
F          2.32800       -2.09970        1.28800
F          2.72940       -2.22480       -0.92340
C          4.46970       -1.41960        0.48400
O          4.99820       -2.71180        0.61540
H          2.13840        1.57060        0.99540
H          2.86130        0.41220       -0.83700
H          1.27630       -0.18760       -0.18110
H          4.69670       -0.81760        1.39380
H          4.97850       -0.92200       -0.36920
H          4.81430       -3.00340        1.54640
