18
4062	1
C          0.88030        0.10230       -0.19230
C          2.39420        0.18670        0.05240
C          2.81200        0.22350        1.54430
O          4.19200        0.08540        1.75610
C          3.19480       -0.73220       -0.84570
C          3.21900        0.81260       -1.07660
N          4.40150        1.54190       -0.60710
H          0.46730       -0.79030        0.32300
H          0.62830        0.02430       -1.27230
H          0.39040        1.01100        0.21630
H          2.26560       -0.57400        2.09990
H          2.48120        1.18610        1.98700
H          4.37640       -0.88530        1.85240
H          2.74320       -1.14020       -1.77480
H          4.22170       -1.04510       -0.56730
H          2.50930        1.39150       -1.70560
H          5.18140        0.92790       -0.28280
H          4.13690        2.25190        0.11350
