12
5199	1
O          0.87310       -0.01980       -0.04880
C          2.09500        0.00030       -0.05540
N          2.75140        1.18790       -0.06640
C          4.20010        1.26710       -0.07450
C          4.86020       -0.08800       -0.06920
N          4.16840       -1.17540       -0.05870
N          2.78980       -1.16500       -0.05150
H          2.21000        2.06600       -0.06920
H          4.53550        1.82790        0.82320
H          4.52610        1.81630       -0.98270
H          5.94340       -0.14710       -0.07450
H          2.28280       -2.06250       -0.04320
