13
159	2
C          1.70070        0.74260        1.39520
O          2.85340        0.39560        0.66860
N          3.81060        0.11300        1.57320
C          4.82870        0.98110        1.80360
C          4.90680        2.28810        1.06780
O          5.69450        0.69630        2.61730
H          0.89980        1.01250        0.67670
H          1.88250        1.63270        2.03770
H          1.33460       -0.11980        1.99510
H          3.78440       -0.78870        2.07580
H          4.00390        2.89660        1.28300
H          4.97000        2.09930       -0.02430
H          5.80440        2.86240        1.38220
