14
244	1
N          2.98730        1.74190        0.36540
C          2.77010        0.33780        0.40570
N          2.06780       -0.17910        1.35110
C          3.34120       -0.55290       -0.66630
C          4.84880       -0.49920       -0.67170
F          5.48040        0.68100       -0.90970
C          5.58280       -1.59600       -0.45480
H          2.59520        2.35380        1.09600
H          3.51970        2.16750       -0.40630
H          1.65830        0.40530        2.09460
H          2.95850       -0.22580       -1.65590
H          2.99400       -1.59740       -0.49820
H          5.11390       -2.55660       -0.26450
H          6.66620       -1.53490       -0.46670
