16
6102	1
C          0.94870       -0.02120       -0.07380
C          2.44310       -0.06310       -0.06850
C          3.29500        1.02400       -0.06180
N          4.57250        0.59570       -0.05860
H          5.42500        1.19820       -0.05360
C          4.54970       -0.75150       -0.06310
C          3.24060       -1.19160       -0.06930
C          2.78120       -2.61430       -0.07560
H          0.58830        1.02910       -0.07160
H          0.55830       -0.53690        0.82830
H          0.56490       -0.53100       -0.98200
H          3.00320        2.06620       -0.05950
H          5.43470       -1.37460       -0.06200
H          3.65090       -3.30470       -0.07470
H          2.17190       -2.80500       -0.98360
H          2.16540       -2.81090        0.82660
