16
3791	1
C          2.35780       -1.40570       -0.82070
C          2.33700       -0.00630       -0.20980
F          3.09700        0.00370        0.94680
C          2.88550        1.01710       -1.17600
C          2.00070        2.15000       -1.64430
N          4.11240        0.89890       -1.57590
N          4.71600        1.77470       -2.45250
H          1.94760       -2.13730       -0.09290
H          3.39600       -1.70700       -1.07690
H          1.73400       -1.43130       -1.73980
H          1.28730        0.23360        0.06340
H          0.98670        2.09040       -1.19730
H          1.88770        2.10900       -2.74800
H          2.44540        3.12360       -1.34940
H          4.21810        2.58510       -2.84630
H          5.69580        1.61830       -2.72670
