16
3951	1
N          3.12320       -0.86490        1.29980
C          2.56030       -0.03730        0.23210
C          2.97330       -0.50510       -1.18460
O          2.36260        0.23960       -2.20730
C          4.45660       -0.66870       -1.44800
O          4.33810       -2.06710       -1.57850
C          2.93740       -2.00280       -1.43110
H          2.74090       -0.53000        2.21260
H          4.15860       -0.75040        1.34330
H          2.86140        1.02320        0.37610
H          1.45170       -0.09280        0.29900
H          1.41230       -0.04580       -2.23920
H          5.12100       -0.38800       -0.60550
H          4.77490       -0.23890       -2.42460
H          2.60490       -2.60270       -0.55620
H          2.44890       -2.28100       -2.39140
