19
3059	1
C          0.97060        0.11600       -0.22970
C          2.49570       -0.01100       -0.26600
F          3.02080        1.06610        0.43000
C          3.02270       -1.32800        0.36130
C          2.49180       -2.57230       -0.37640
C          4.56890       -1.32240        0.35020
N          5.11120       -2.51650        0.99330
H          0.67470        1.10120       -0.64760
H          0.60260        0.05180        0.81610
H          0.48040       -0.66580       -0.84370
H          2.83320        0.06080       -1.32370
H          2.68180       -1.37270        1.41980
H          2.79940       -2.55540       -1.44390
H          1.38670       -2.63320       -0.31790
H          2.88230       -3.50030        0.09220
H          4.94790       -0.42690        0.89060
H          4.93670       -1.27310       -0.69910
H          4.81130       -2.53500        1.99510
H          6.15510       -2.45760        0.97510
