12
6183	1
N          0.87800        0.13650        0.03490
C          2.29030        0.08990        0.03510
N          3.08790        1.17430        0.03430
N          4.34150        0.73030        0.03470
N          4.36320       -0.59650        0.03580
H          5.22870       -1.18020        0.03630
C          3.09250       -1.02220        0.03600
N          2.69700       -2.37940        0.03700
H          0.39310        1.04510        0.03420
H          0.32320       -0.73060        0.03550
H          3.40910       -3.12360        0.03760
H          1.70020       -2.63630        0.03710
