12
67	2
C          1.00930       -0.03830        0.14530
C          2.52220       -0.15090       -0.02660
C          3.03520        0.81310       -1.06480
N          2.90740        2.14960       -0.88970
O          3.58170        0.38340       -2.06970
H          0.66770       -0.77040        0.90700
H          0.49690       -0.25940       -0.81540
H          0.72260        0.97870        0.48530
H          2.76190       -1.19310       -0.33250
H          3.02530        0.05280        0.94270
H          2.46040        2.52910       -0.04270
H          3.26390        2.80430       -1.60160
