13
690	1
C          0.97050       -0.13140       -0.32470
N          2.41360       -0.10170       -0.42270
C          3.20700       -0.71220        0.49490
O          2.70990       -1.31130        1.44110
O          4.55650       -0.65180        0.35280
C          5.43820       -1.24140        1.23440
H          0.52290        0.42700       -1.17400
H          0.64410        0.34340        0.62500
H          0.60880       -1.18120       -0.35880
H          2.85020        0.39770       -1.21220
H          6.47630       -1.04660        0.89540
H          5.27290       -2.33980        1.26550
H          5.30830       -0.81270        2.25130
