18
3284	1
C          2.57700        0.19310       -1.86450
C          2.42540        0.23440       -0.34320
C          3.40920       -0.70350        0.37740
F          3.13940       -2.01010       -0.00280
C          4.86610       -0.33450        0.13150
C          5.36790        1.02080        0.56610
C          5.71330       -1.20170       -0.45160
H          1.83030        0.87060       -2.32940
H          2.40540       -0.83630       -2.24410
H          3.59100        0.52920       -2.16730
H          1.38940       -0.07370       -0.08340
H          2.56180        1.27810        0.01040
H          3.22140       -0.63290        1.47020
H          4.81800        1.82340        0.03440
H          6.44980        1.15560        0.35130
H          5.21470        1.13780        1.65920
H          5.38590       -2.18510       -0.77140
H          6.75250       -0.93550       -0.61920
