14
3437	1
C          1.20940       -0.03100       -0.21330
N          2.50370       -0.30380        0.41300
N          3.37640        0.73270        0.71540
C          3.13260        1.97800        0.48040
C          2.87500       -1.59190        0.71140
N          4.07420       -1.85540        1.29270
O          2.12670       -2.52590        0.45660
H          1.36470        0.46550       -1.19440
H          0.60460        0.62650        0.44640
H          0.61110       -0.94670       -0.40050
H          3.87180        2.72410        0.74950
H          2.21020        2.31200        0.02050
H          4.73950       -1.10540        1.52720
H          4.33880       -2.82770        1.51070
