14
6340	1
C          0.88440       -0.14090        0.17510
C          2.37360       -0.01450       -0.13120
C          3.15590        1.15760        0.69050
N          3.82310        0.08980        1.36530
O          4.75160        0.06860        2.33160
C          3.22160       -0.86870        0.74190
O          3.36860       -2.07190        0.88660
H          0.33360        0.67210       -0.34170
H          0.69080       -0.06670        1.26710
H          0.50930       -1.11920       -0.19220
H          2.65630       -0.12500       -1.20010
H          2.53680        1.73490        1.41210
H          3.88250        1.74680        0.08980
H          5.61810        0.11490        1.85260
