12
2926	1
O          3.60540        0.70370       -0.56350
C          2.52140        0.00510       -0.01320
C          2.96530       -1.15520        0.84550
F          1.99990       -1.91150        1.43600
C          4.26320       -1.45860        1.04100
C          4.66640       -2.59870        1.88550
O          5.84980       -2.84930        2.04420
H          3.21410        1.43820       -1.10410
H          1.88610       -0.39840       -0.83210
H          1.92190        0.69230        0.62330
H          5.04520       -0.86530        0.57700
H          3.92150       -3.22160        2.37070
