14
2917	2
N          1.11680       -0.14570        0.07830
C          2.53680       -0.06320       -0.01320
C          3.40940       -0.77450        1.00750
O          2.65090       -1.47570        1.95590
C          3.08450        0.65460       -1.01990
C          4.54270        0.81060       -1.21710
O          4.95820        1.47630       -2.15140
H          0.66010       -0.68550        0.82620
H          0.51780        0.33440       -0.60980
H          4.07480       -0.04440        1.52330
H          4.06170       -1.50680        0.48610
H          2.36880       -0.81490        2.64160
H          2.42690        1.14890       -1.73040
H          5.25610        0.34440       -0.54720
