10
718	3
N          0.99290       -0.29010        0.24760
C          2.37900       -0.08840        0.01760
C          3.15960       -1.10170       -0.73810
O          2.61780       -2.10910       -1.16420
N          2.94080        0.97990        0.47260
O          4.22290        1.22000        0.28970
H          0.51630       -1.13320       -0.10340
H          0.44680        0.40970        0.77120
H          4.21960       -0.95790       -0.91970
H          4.61820        2.02870        0.64150
