11
260	2
C          1.31630        0.31130        0.42770
C          2.31450       -0.13270       -0.60170
O          2.12090       -1.16520       -1.22440
C          3.52940        0.66000       -0.87430
N          3.75760        1.74970       -0.23380
O          4.84180        2.45270       -0.48040
H          0.47250       -0.40860        0.49260
H          0.91290        1.30840        0.15270
H          1.80650        0.37550        1.42170
H          4.23460        0.31310       -1.62590
H          5.00760        3.27180        0.00520
