11
743	2
C          1.01790       -0.09860        0.16210
N          2.44330        0.05020        0.01870
C          3.07810        0.92300       -0.82200
O          4.30000        0.98160       -0.87850
C          2.27970        1.79100       -1.65820
C          1.62150        2.51510       -2.35580
H          0.82080       -0.87250        0.90750
H          0.58410       -0.38950       -0.79840
H          0.58410        0.85030        0.48860
H          3.06800       -0.52320        0.57100
H          1.04850        3.16170       -2.97860
