10
742	2
O          2.91870        0.86270        0.81200
N          2.31420        0.11150       -0.11920
C          3.07260       -0.87670       -0.79200
N          2.51650       -1.89790       -1.31320
C          4.47690       -0.78640       -0.83420
C          5.66640       -0.76130       -0.89990
H          3.61890        1.39090        0.35560
H          1.31050       -0.06590        0.00600
H          1.50360       -1.98370       -1.28360
H          6.71250       -0.73610       -0.95580
