16
3499	2
C          0.90590       -0.51230        0.12080
C          2.36580       -0.04760        0.01110
O          2.99630       -0.67870       -1.07800
C          2.46730        1.47240       -0.05900
N          3.02350        2.06480       -1.06110
N          1.95390        2.25450        1.01870
N          2.01640        3.64390        0.99850
H          0.87070       -1.61970        0.19850
H          0.32840       -0.19800       -0.77490
H          0.41860       -0.08960        1.02350
H          2.89310       -0.37680        0.93190
H          2.43000       -0.54250       -1.88300
H          3.42130        1.55590       -1.86220
H          1.53480        1.78820        1.83560
H          1.49180        3.98670        0.16140
H          3.01940        3.93020        0.92400
