12
1485	1
C          0.96580        0.10160       -0.02860
C          2.49370        0.02800        0.06060
C          3.27860       -0.64530       -1.06110
F          2.41980       -1.24150       -1.97030
C          3.20580        0.88460       -0.96500
F          2.53760        1.38510       -2.07000
F          4.46950        1.37110       -0.68510
H          0.53060       -0.75010        0.53380
H          0.58550        0.06700       -1.07140
H          0.61920        1.04730        0.43770
H          2.98940        0.14110        1.04890
H          4.03220       -1.27610       -0.54380
