12
295	1
F          1.64880       -0.27940        1.09070
C          2.20270        0.09140       -0.11970
C          3.11130        1.30440        0.09460
C          3.49810        1.95380       -1.21870
C          2.57280        2.68350       -0.23720
H          1.38130        0.29850       -0.83950
H          2.80720       -0.75370       -0.51060
H          4.02340        1.20570        0.72190
H          2.87490        1.82330       -2.12950
H          4.40840        2.58850       -1.26260
H          1.47080        2.58990       -0.34610
H          3.00760        3.35110        0.53710
