12
2635	1
F          0.84070       -1.83960       -0.67300
C          2.18460       -2.00940       -0.77960
C          3.00220       -0.99690       -0.45620
C          4.50220       -1.02570       -0.51920
C          5.16360        0.08530       -0.15590
C          5.31320       -2.20050       -0.95680
O          4.80270       -3.25050       -1.30420
H          2.54180       -2.96510       -1.12500
H          2.53140       -0.07650       -0.11910
H          4.62970        0.97290        0.17190
H          6.24900        0.12390       -0.18080
H          6.39670       -2.12480       -0.96880
