16
2527	1
C          0.94750       -0.21970        0.00820
N          2.39000       -0.23000       -0.01570
C          3.08000       -0.64340        0.99020
N          4.50580       -0.64380        0.93660
N          5.16830       -0.16750       -0.19380
C          5.24730       -1.14020        2.05160
C          6.58590       -1.16640        2.05790
H          0.56980        0.15260       -0.96610
H          0.58380        0.45140        0.81530
H          0.55980       -1.24810        0.17350
H          2.57430       -1.00190        1.88520
H          4.90030        0.83220       -0.33900
H          4.86920       -0.73470       -1.01900
H          4.71770       -1.51220        2.92480
H          7.16460       -0.80830        1.21290
H          7.11340       -1.55350        2.92360
