9
6122	1
F          0.88610        0.06300        0.08600
C          2.24090        0.04180        0.09300
C          3.09070        1.12260        0.09820
N          4.35600        0.66030        0.10440
H          5.22420        1.23960        0.10930
N          4.34270       -0.66540        0.10320
C          3.05690       -1.06420        0.09630
F          2.65700       -2.35870        0.09310
H          2.81420        2.16870        0.09760
