11
5314	2
O          0.98150       -0.06410        0.07290
C          2.32400       -0.02720       -0.03890
C          3.00900        1.19460       -0.09560
N          4.36360        1.19850       -0.20840
C          5.06370        0.03510       -0.26690
C          4.38240       -1.18270       -0.21050
N          3.02790       -1.18890       -0.09780
H          0.45270        0.74550        0.11710
H          2.46990        2.13190       -0.05050
H          6.14160        0.05500       -0.35670
H          4.92680       -2.11640       -0.25610
