8
12	1
C          0.96510        0.06010       -0.07010
C          2.45980        0.05940       -0.06940
O          3.13540        0.89330       -0.88820
O          3.06750       -0.69680        0.67310
H          0.58000        0.80320       -0.79980
H          0.59070        0.32190        0.94170
H          0.59070       -0.94680       -0.35020
H          4.10300        0.90640       -0.90120
