13
6212	2
C          0.87670        0.09440        0.02360
C          2.37080        0.07320        0.02610
C          3.22900        1.15450        0.02810
N          4.49360        0.68390        0.02990
H          5.36910        1.25210        0.03160
O          4.44950       -0.61790        0.02920
C          3.20250       -1.02440        0.02690
N          2.83750       -2.25180        0.02560
H          0.50430        1.14050        0.02360
H          0.49550       -0.42400        0.92800
H          0.49850       -0.42310       -0.88250
H          2.95980        2.20260        0.02820
H          3.53850       -3.00690        0.02640
