13
2511	1
N          1.11250       -0.20980        0.14680
N          2.44680        0.15920       -0.02170
C          3.00360        1.27010        0.69150
N          2.30470        1.97270        1.51320
C          3.28290       -0.57470       -0.91740
C          2.82760       -1.62340       -1.61560
F          3.66160       -2.28990       -2.45550
H          0.50230        0.59210       -0.13230
H          0.95470       -0.45800        1.15010
H          4.04600        1.53440        0.54050
H          1.31240        1.78010        1.70530
H          4.32170       -0.28020       -1.04260
H          1.79920       -1.95650       -1.52580
