13
1104	1
C          1.67580       -0.62720       -0.61160
C          3.05080       -0.25850       -0.14600
O          3.96230       -1.06660       -0.25120
C          3.29260        1.08200        0.43740
C          4.50850        1.46100        0.87000
C          4.75150        2.79750        1.45220
O          3.84900        3.61320        1.56230
H          1.66250       -1.66000       -1.02080
H          1.34970        0.07620       -1.40620
H          0.96590       -0.57110        0.24000
H          2.45400        1.76910        0.51190
H          5.34940        0.77750        0.79750
H          5.74970        3.05770        1.78740
