13
5882	1
C          0.97180        0.02520       -0.28310
C          2.28450        0.00300       -0.03610
C          3.10280       -1.17650        0.10320
C          4.40740       -0.79130        0.35380
C          4.57030        0.71120        0.40350
C          3.15820        1.15020        0.14300
O          2.79770        2.31580        0.08980
H          0.41980       -0.90240       -0.39880
H          0.44380        0.96950       -0.37060
H          2.76550       -2.20210        0.02670
H          5.21720       -1.49420        0.49750
H          5.25800        1.06680       -0.39220
H          4.91970        1.04420        1.40330
