14
6156	1
N          0.97520        0.09660       -0.09080
C          2.38940        0.06870       -0.08430
C          3.21700        1.17180       -0.07780
C          4.51260        0.67990       -0.07290
N          4.49400       -0.66980       -0.07620
H          5.32690       -1.29960       -0.07380
C          3.20240       -1.04580       -0.08310
N          2.78000       -2.39590       -0.08830
H          0.47710        0.99830       -0.09100
H          0.43000       -0.77630       -0.09540
H          2.91770        2.21160       -0.07670
H          5.41640        1.27470       -0.06730
H          3.47790       -3.15350       -0.08680
H          1.77950       -2.63680       -0.09350
