18
2856	1
C          1.07490       -0.07670        0.11990
C          2.57650       -0.06340       -0.01270
C          3.16410       -0.06860       -1.40850
N          3.92270        1.15450       -1.65410
C          3.34460       -0.05200        1.10420
C          4.85420       -0.05920        1.10550
O          5.33510        1.06830        1.78270
H          0.65360        0.82040       -0.38040
H          0.74200       -0.07220        1.18000
H          0.66780       -0.98740       -0.36730
H          2.35170       -0.14290       -2.16600
H          3.81890       -0.95780       -1.53430
H          3.27310        1.97330       -1.60870
H          4.31660        1.11350       -2.62180
H          2.85930       -0.04570        2.07660
H          5.31580       -0.11780        0.09790
H          5.19500       -0.96470        1.64900
H          5.24460        1.83390        1.15690
