16
609	2
C          0.98560       -0.59820       -0.19720
C          2.48780       -0.30370       -0.04240
O          3.16200       -0.36890       -1.27530
C          2.74240        1.03460        0.68830
N          2.18880        2.18940       -0.00280
C          2.72500        2.71070       -1.13770
O          3.73390        2.23730       -1.63710
H          0.84450       -1.59080       -0.67490
H          0.49350        0.17370       -0.82660
H          0.49250       -0.61350        0.79810
H          2.90390       -1.11300        0.59610
H          2.57220        0.00420       -1.98110
H          3.82660        1.18930        0.87920
H          2.24540        0.95350        1.68040
H          1.37640        2.66710        0.41540
H          2.26850        3.58370       -1.59290
