10
5675	2
N          1.03710        0.08500       -0.03590
C          2.44890        0.05140       -0.04080
N          3.24380        1.13630       -0.04640
N          4.48980        0.67530       -0.04950
H          5.34330        1.27600       -0.05410
O          4.49460       -0.62920       -0.04600
C          3.25790       -1.05410       -0.04060
O          2.91610       -2.22280       -0.03630
H          0.54170        0.98810       -0.03660
H          0.49540       -0.79120       -0.03170
