11
3458	2
N          1.50400        0.46220        0.63010
C          2.36840       -0.14610       -0.21810
O          2.48730       -1.36280       -0.18840
C          3.17930        0.65580       -1.20710
F          2.86960        2.00200       -1.13750
C          4.61400        0.50660       -0.94300
C          5.79900        0.40090       -0.74770
H          0.94910       -0.09470        1.29640
H          1.38970        1.48550        0.62840
H          2.95410        0.29980       -2.23460
H          6.84200        0.31860       -0.58980
