13
1567	1
F          2.66750       -1.26080       -0.07930
C          2.42400        0.09760        0.00390
C          2.60770        0.73670       -1.37290
C          2.55470        2.24910       -1.37150
C          3.95930        2.11310       -1.91680
O          3.94870        0.71040       -1.79320
H          3.12440        0.54410        0.74210
H          1.38180        0.25680        0.35200
H          1.95310        0.29560       -2.15880
H          2.57840        2.68830       -0.34950
H          1.83670        2.66950       -2.10840
H          4.72610        2.57120       -1.25380
H          4.02940        2.39610       -2.99090
