12
76	1
C          0.92590        0.14670       -0.09940
C          2.42830       -0.11170       -0.15620
F          2.76560       -0.50060       -1.44330
F          3.10130        1.05990        0.13990
C          2.81040       -1.16010        0.86170
C          3.39140       -2.31830        0.52500
F          3.71070       -3.21950        1.49000
H          0.65110        0.93130       -0.83600
H          0.62890        0.49320        0.91390
H          0.36600       -0.78160       -0.34350
H          2.60500       -0.96290        1.91020
H          3.61510       -2.55680       -0.50940
