9
1124	1
O          0.93980        0.06870        0.01810
C          2.28490        0.07000        0.01290
N          3.03530        1.18950        0.00750
C          4.30150        0.73180        0.00370
C          4.27220       -0.64650        0.00690
O          3.01570       -1.01930        0.01250
H          0.44470        0.89960        0.01810
H          5.18200        1.36010       -0.00110
H          5.12090       -1.31720        0.00510
