12
3019	1
C          1.02810        0.04170        0.13380
C          2.53000        0.07450        0.02170
C          3.19630        0.40070       -1.09390
C          2.50120        0.74870       -2.28450
C          1.89250        1.03750       -3.27220
C          3.26630       -0.26650        1.18780
N          3.83530       -0.54760        2.14960
H          0.49190        0.31190       -0.79050
H          0.70720        0.74500        0.92540
H          0.70720       -0.97730        0.42190
H          4.28420        0.40780       -1.11830
H          1.36420        1.29180       -4.14190
