13
1698	1
C          1.10020        0.03170       -0.03250
C          2.62520       -0.07060        0.05340
C          3.39550       -0.66260       -1.12900
C          3.26120        0.84830       -0.97940
C          4.56410        1.42930       -0.62500
N          5.58690        1.89280       -0.34480
H          0.65360       -0.67170        0.70000
H          0.71230       -0.21840       -1.04310
H          0.77500        1.06130        0.23000
H          3.11890        0.12650        1.03090
H          2.67690       -1.18470       -1.79720
H          4.24790       -1.21370       -0.67370
H          2.72180        1.21630       -1.87870
