11
4557	1
C          1.12750        0.08610       -0.09010
C          2.61440       -0.01660       -0.09500
N          3.45630        1.03670       -0.09710
N          4.68400        0.53940       -0.10140
C          4.54860       -0.79930       -0.10180
O          5.57450       -1.66890       -0.10570
O          3.28570       -1.14320       -0.09790
H          0.81520        1.15150       -0.08850
H          0.72500       -0.41210        0.81610
H          0.71920       -0.41100       -0.99430
H          6.48890       -1.35380       -0.10850
