15
792	2
C          0.99290        0.05760       -0.13540
N          2.41570       -0.04440        0.10770
C          2.93940       -0.61800        1.14330
C          2.06410       -1.24500        2.21290
N          4.36170       -0.65570        1.25180
N          4.99670       -1.26070        2.33170
H          0.82750        0.59380       -1.09230
H          0.50030        0.63010        0.67870
H          0.54200       -0.95400       -0.21840
H          1.40810       -0.47130        2.66370
H          2.65040       -1.70700        3.03060
H          1.43560       -2.04270        1.76550
H          4.93130       -0.23950        0.49770
H          4.76130       -0.71630        3.19250
H          6.03000       -1.19090        2.18710
