16
1451	1
C          2.43910       -1.33590       -0.96820
C          3.17760       -0.58570        0.13380
C          2.95720        0.89170        0.00220
N          3.95720        1.68240       -0.17350
N          3.78170        3.04160       -0.29630
C          4.92370        3.89580       -0.49500
H          2.60620       -2.42750       -0.85180
H          2.81490       -1.02220       -1.96570
H          1.34790       -1.13510       -0.90920
H          4.26240       -0.82290        0.06950
H          2.80080       -0.91930        1.12390
H          1.94500        1.28520        0.05870
H          2.83800        3.45770       -0.24800
H          5.44680        3.60910       -1.43130
H          5.62100        3.79390        0.36290
H          4.59710        4.95450       -0.57240
