15
4101	1
N          1.24050        0.77800        1.08280
C          2.14930        0.05850        0.19120
C          2.77140        0.94820       -0.90580
O          3.62170        0.30450       -1.81370
C          1.82980        1.89730       -1.62570
C          2.96760        2.44520       -0.74160
F          4.09940        2.85910       -1.42540
H          0.97460        0.13710        1.86500
H          0.35810        1.00320        0.57080
H          1.61550       -0.79520       -0.28150
H          2.98630       -0.35270        0.79570
H          4.50820        0.27020       -1.37000
H          0.92250        2.32940       -1.15780
H          2.08310        2.20340       -2.66340
H          2.88250        2.66360        0.34340
