12
760	1
C          2.77660       -1.05750       -0.67420
C          2.19230       -0.25430        0.22450
C          2.96480        0.59440        1.17400
C          2.31380        1.37460        2.04700
C          4.37080        0.59440        1.17400
C          5.56100        0.59440        1.17400
H          2.16360       -1.65430       -1.34190
H          3.85610       -1.13040       -0.75580
H          1.10630       -0.22500        0.25720
H          1.22810        1.39620        2.07110
H          2.85850        2.00160        2.74850
H          6.61920        0.59420        1.17370
