19
169	1
C          1.60300        0.56090       -0.49000
C          3.09980        0.22270       -0.45990
N          3.88760        1.42120       -0.16080
C          3.38150       -0.88070        0.57970
C          4.86160       -1.29680        0.60600
C          5.10370       -2.38310        1.65130
F          5.23940       -1.77600       -0.63730
H          1.40270        1.33760       -1.25830
H          1.26690        0.94150        0.49850
H          1.00990       -0.34270       -0.74660
H          3.38740       -0.15260       -1.46710
H          3.60160        1.81990        0.76350
H          3.72420        2.14310       -0.90000
H          2.76490       -1.77400        0.33430
H          3.08430       -0.51790        1.58890
H          5.49510       -0.41970        0.86030
H          4.50040       -3.28670        1.41860
H          4.82960       -2.01330        2.66260
H          6.17820       -2.66400        1.65660
