16
625	1
C          2.21360        0.79920        2.11660
C          1.93500       -0.15010        0.95170
F          0.56810       -0.22340        0.74690
C          2.61000        0.31880       -0.33930
O          3.98290        0.35460       -0.17300
C          4.88470        0.71980       -1.12710
C          4.53320        1.09370       -2.36680
H          1.70340        0.42770        3.03030
H          1.83310        1.81700        1.88520
H          3.30350        0.85650        2.32240
H          2.30810       -1.16460        1.21170
H          2.23170        1.33000       -0.60820
H          2.35350       -0.39540       -1.15230
H          5.93890        0.70690       -0.87010
H          3.49680        1.12660       -2.68310
H          5.30090        1.37310       -3.08110
