12
2347	1
C          0.89790        0.29910       -0.13450
C          2.21650        0.06100       -0.09690
C          2.86690       -0.47970        1.14950
C          3.31160       -1.85960        0.93060
C          3.64870       -3.00790        0.78580
C          3.02410        0.33960       -1.26330
N          3.66140        0.56600       -2.20250
H          0.27190        0.09400        0.72910
H          0.42880        0.68720       -1.03410
H          2.15250       -0.49870        1.99950
H          3.72450        0.16650        1.43690
H          3.93000       -4.02210        0.67650
