14
1087	1
C          3.87850       -0.95680        0.28560
O          2.90600        0.02300        0.25700
C          3.08290        1.30100       -0.18310
C          4.25940        1.76160       -0.65210
C          4.40130        3.15980       -1.11920
F          3.33720        4.00720       -1.08140
C          5.57240        3.60540       -1.58220
H          3.43940       -1.89020        0.69340
H          4.71880       -0.64650        0.94290
H          4.24960       -1.16150       -0.74130
H          2.22750        1.96860       -0.14870
H          5.12650        1.10980       -0.69470
H          6.44080        2.95440       -1.62550
H          5.66720        4.63160       -1.92250
