7
1133	1
F          0.88760       -0.08310       -0.02960
C          2.24230       -0.07000       -0.03550
N          2.99090        1.04690       -0.04070
C          4.24830        0.56150       -0.04540
N          4.24750       -0.78570       -0.04320
O          2.99780       -1.13900       -0.03710
H          5.14040        1.17300       -0.05040
