18
6378	1
C          1.46400        0.11050       -0.49510
C          2.81780       -0.06840        0.19230
C          3.23260       -1.46670        0.66870
C          4.12950       -1.93000       -0.44020
C          4.89810       -0.66110       -0.71560
N          3.88570        0.40890       -0.74380
C          3.65470        1.07980        0.55380
H          1.38070       -0.58640       -1.35590
H          1.32750        1.15020       -0.86320
H          0.65390       -0.11650        0.22860
H          2.38310       -2.15660        0.85930
H          3.82800       -1.37200        1.60530
H          3.50150       -2.15930       -1.33140
H          4.75500       -2.81470       -0.19670
H          5.42930       -0.73240       -1.68790
H          5.66310       -0.48000        0.07430
H          3.20140        2.08020        0.39320
H          4.48120        0.93310        1.28260
