14
2304	2
C          3.17840        0.93470        0.67340
C          2.46130        0.04330       -0.02510
C          3.01750       -0.87430       -1.07270
C          2.14540       -1.71050       -1.67730
N          4.42270       -0.85280       -1.40820
C          5.00870       -1.64980       -2.34440
O          6.20780       -1.55530       -2.55530
H          2.67910        1.55400        1.41190
H          4.24090        1.07550        0.54280
H          1.39710       -0.01100        0.19140
H          1.09490       -1.70040       -1.40070
H          2.42720       -2.41450       -2.44420
H          5.03960       -0.19580       -0.91560
H          4.44920       -2.37320       -2.91710
