15
697	1
N          2.49980       -0.77630       -1.32630
C          2.42060       -0.05090       -0.05990
C          2.90650        1.37920       -0.22060
C          2.02600        2.38830       -0.11570
C          4.34020        1.70950       -0.48200
C          5.32410        0.80130       -0.48020
H          2.14360       -1.74760       -1.17590
H          3.48490       -0.84950       -1.66060
H          3.00390       -0.56700        0.73260
H          1.35610       -0.06450        0.26170
H          0.97450        2.19690        0.07590
H          2.34620        3.42110       -0.22270
H          4.61090        2.74720       -0.66280
H          5.14100       -0.24730       -0.28280
H          6.34540        1.11730       -0.66750
