10
994	1
O          0.90600       -0.02760       -0.06920
C          2.25140       -0.04530       -0.06420
C          3.09860        1.04000       -0.06110
N          4.36830        0.58550       -0.05640
N          4.33400       -0.74070       -0.05660
H          5.18100       -1.35060       -0.05340
C          3.05450       -1.15750       -0.06130
H          0.42060        0.80930       -0.07100
H          2.81870        2.08500       -0.06220
H          2.73940       -2.19270       -0.06240
