14
2194	1
F          0.72280        1.37110       -0.61760
C          1.71990        0.54430       -0.12670
C          1.65180       -0.85760       -0.68050
C          0.68580       -1.19710       -1.56270
O          2.60120       -1.73930       -0.24670
C          2.75150       -3.04370       -0.59720
C          3.74440       -3.75510       -0.06540
H          1.62930        0.50120        0.97870
H          2.70410        0.98770       -0.38520
H         -0.05370       -0.47290       -1.88710
H          0.60180       -2.18870       -1.98230
H          2.08840       -3.53160       -1.29950
H          4.42980       -3.29990        0.64280
H          3.87460       -4.79760       -0.33770
