16
4340	1
N          1.06050        0.03350       -0.28100
C          2.47360       -0.08130        0.07130
C          2.75600       -1.40940        0.83660
C          3.27600       -0.94420        2.16110
C          3.65710       -1.75300        3.15350
C          3.30950        0.49270        2.22270
C          2.85610        1.00000        1.04200
H          0.81810       -0.73210       -0.95100
H          0.90620        0.94190       -0.77650
H          3.10930       -0.00470       -0.83900
H          3.52860       -2.01310        0.31330
H          1.83330       -2.01140        0.98690
H          3.60250       -2.83040        3.03330
H          4.02420       -1.34250        4.08920
H          3.64030        1.08940        3.06290
H          2.78690        2.06010        0.83590
