13
5844	1
C          1.01940        0.02810        0.06730
N          2.47790        0.00310        0.07120
C          3.32100        1.05600        0.07490
N          4.60680        0.63580        0.07770
N          4.57910       -0.68950        0.07590
H          5.42340       -1.30410        0.07730
C          3.29010       -1.06580        0.07190
N          2.88830       -2.28360        0.06920
H          0.64860        1.07530        0.06770
H          0.63450       -0.48910        0.97110
H          0.63930       -0.48670       -0.83990
H          3.01550        2.09430        0.07540
H          3.56290       -3.06280        0.07000
