18
1725	1
C          0.95120        0.06160       -0.14400
C          2.47690       -0.07060       -0.10770
C          3.03900        0.09500       -1.53450
C          3.02480        0.88980        0.98640
C          4.52990        1.08910        0.98180
C          3.58600        2.26220        0.66900
H          0.51400       -0.67400       -0.85280
H          0.65720        1.08510       -0.46230
H          0.52290       -0.13640        0.86210
H          2.71990       -1.10470        0.22130
H          2.79450        1.08740       -1.96460
H          2.59170       -0.67330       -2.20100
H          4.13500       -0.06290       -1.55940
H          2.70550        0.70060        2.03490
H          5.15990        1.03140        0.07230
H          5.02190        1.37940        1.93430
H          3.33100        2.50950       -0.37790
H          3.24160        2.91830        1.49690
