9
1208	1
F          0.95680       -0.05070       -0.11480
C          2.30750       -0.02490       -0.08890
C          2.93380        0.83890        0.71660
C          3.03290       -0.93930       -0.94010
C          3.64670       -1.70800       -1.65590
C          4.35360       -2.62560       -2.51020
N          4.95680       -3.35420       -3.18850
H          2.34800        1.50750        1.33850
H          4.01580        0.89600        0.76950
