18
15	1
C          1.19440        0.10190       -0.62440
C          2.60420       -0.29530       -0.16320
C          2.84090       -1.77990       -0.48610
F          3.52110        0.46640       -0.87050
C          2.75030        0.00510        1.34880
C          4.15400       -0.26900        1.90700
O          4.20420        0.06290        3.26800
H          1.07950       -0.07650       -1.71510
H          1.01490        1.18160       -0.43310
H          0.42190       -0.48780       -0.08470
H          2.70610       -1.96010       -1.57420
H          2.12500       -2.42180        0.07100
H          3.87490       -2.08810       -0.23190
H          2.00940       -0.59240        1.92490
H          2.52840        1.08260        1.51470
H          4.92490        0.30590        1.34470
H          4.40990       -1.34330        1.81370
H          4.30100        1.04980        3.31820
