13
935	1
C          1.03890        0.06670        0.14040
C          2.54200        0.10230       -0.12690
C          3.05060       -1.17780       -0.84880
C          3.61270       -0.56230       -2.07700
N          3.45700        0.69300       -2.08570
O          2.85240        1.11980       -1.00770
H          0.79660       -0.77210        0.82660
H          0.47750       -0.06650       -0.80930
H          0.71940        1.01890        0.61420
H          3.09720        0.26150        0.82310
H          2.23640       -1.87890       -1.13330
H          3.84770       -1.69210       -0.27100
H          4.09170       -1.10000       -2.88410
