8
1165	1
O          0.96370       -0.09280       -0.05030
C          2.30900       -0.08290       -0.04730
C          3.13020        1.01600       -0.04780
O          4.35590        0.54790       -0.04400
N          4.33280       -0.75680       -0.04120
N          3.07700       -1.18210       -0.04310
H          0.46110        0.73380       -0.05320
H          2.85090        2.06110       -0.05080
