17
6409	1
O          3.03400        1.86250       -1.28580
C          2.43880        1.82000       -0.01880
C          3.12680        0.77200        0.85890
C          4.60170        1.11520        1.11930
C          5.41190        0.05570        1.82700
O          6.38930        0.05390        0.81120
C          5.58370        0.87510       -0.00350
H          2.54510        2.55890       -1.79630
H          1.36750        1.53790       -0.12360
H          2.51460        2.81590        0.47280
H          3.03470       -0.22980        0.38420
H          2.60190        0.74110        1.83800
H          4.79040        2.10370        1.59560
H          4.92100       -0.94410        1.84780
H          5.81210        0.39810        2.80630
H          5.17380        0.25410       -0.83220
H          6.10520        1.80220       -0.32660
