15
3774	1
C          0.99160       -0.11720        0.18360
C          2.49060        0.03710        0.13370
C          3.18610        0.95390       -0.58930
C          2.54860        1.99610       -1.48490
C          4.69550        0.95250       -0.50990
F          5.22740        0.73710       -1.76810
F          5.13760        2.17310       -0.03330
H          0.72970       -1.14230       -0.15090
H          0.40990        0.58790       -0.43020
H          0.65780        0.00500        1.23490
H          3.04840       -0.66690        0.74530
H          1.44910        1.98500       -1.53270
H          2.91870        1.85910       -2.52240
H          2.84690        3.00670       -1.13610
H          5.08000        0.15930        0.16660
