15
6155	1
C          0.93230        0.11840        0.05540
C          2.42710        0.10080        0.06050
C          3.26190        1.20210        0.06610
C          4.55710        0.71190        0.06930
N          4.53840       -0.63580        0.06590
H          5.37070       -1.26630        0.06720
C          3.24690       -1.00970        0.06050
N          2.82020       -2.35790        0.05570
H          0.55540        1.16290        0.05670
H          0.55030       -0.40220        0.95830
H          0.55650       -0.39770       -0.85260
H          2.96570        2.24280        0.06760
H          5.46070        1.30700        0.07390
H          3.51390       -3.11930        0.05620
H          1.81670       -2.58980        0.05170
