11
2504	1
O          0.71760       -0.25790       -0.61380
N          1.99450        0.04440       -0.70630
C          2.84990       -0.84770       -1.05470
C          4.30890       -0.50070       -1.15800
F          5.01860       -1.29060       -0.27300
C          4.85260       -0.71170       -2.54520
O          4.14200       -1.11500       -3.45390
H          0.07860        0.41810       -0.35110
H          2.52350       -1.86160       -1.27450
H          4.46420        0.56550       -0.88440
H          5.89820       -0.49870       -2.74210
