9
358	1
F          1.77900        0.46520        1.22740
C          2.40470        0.10320        0.04940
F          3.42030        1.00670       -0.21510
C          2.91110       -1.30980        0.17110
F          2.01810       -2.30310        0.42320
C          4.20670       -1.61940        0.03920
H          1.66670        0.14980       -0.77810
H          4.95460       -0.85960       -0.16250
H          4.52780       -2.65170        0.13430
