13
5282	1
C          0.96380       -0.06670       -0.04660
C          2.29960       -0.07430       -0.05730
O          2.98310        1.09490       -0.07550
C          4.37090        1.17740       -0.08760
O          5.00740       -0.06220       -0.07910
C          4.37650       -1.26620       -0.06090
C          3.04790       -1.33420       -0.04950
H          0.42300        0.87460       -0.05260
H          0.40150       -0.99580       -0.03200
H          4.70030        1.75200        0.80270
H          4.68590        1.73230       -0.99540
H          4.96410       -2.17830       -0.05560
H          2.54270       -2.29600       -0.03490
