11
6095	3
N          1.12150        0.05800       -0.15820
C          2.38200       -0.00270        0.07410
C          3.19090       -1.20590        0.25620
C          4.48920       -0.76430        0.48120
N          4.53920        0.65000        0.45020
C          3.30040        1.11460        0.21040
O          3.01980        2.29970        0.12550
H          0.55980       -0.80230       -0.23660
H          2.86300       -2.23640        0.22550
H          5.34500       -1.40250        0.65590
H          5.38150        1.22730        0.58800
