10
24	1
N          0.92540        0.07030        0.04450
C          2.38430        0.05870        0.03120
C          2.89920       -0.56310       -1.26250
F          4.28190       -0.55690       -1.26450
H          0.60610        0.52470        0.93050
H          0.57480       -0.91540        0.05010
H          2.76530       -0.51930        0.90230
H          2.75910        1.10280        0.10450
H          2.53370        0.01910       -2.13500
H          2.54370       -1.61160       -1.35180
