7
11	1
N          0.92110        0.06890       -0.01500
C          2.33810        0.07430       -0.01670
N          2.99010        1.12810       -0.35380
H          0.41230       -0.78390        0.25780
H          0.39000        0.91010       -0.28410
H          2.87950       -0.82120        0.26970
H          2.50180        1.99260       -0.63040
