15
1920	1
C          1.06110       -0.45920        0.05500
C          2.52890       -0.09320       -0.12640
O          2.64150        0.76900       -1.20010
C          3.82940        1.09550       -1.76180
C          3.85310        1.70880       -2.94490
C          3.05790        0.48810        1.12180
C          3.45660        0.95980        2.15880
H          0.67210       -0.89190       -0.89170
H          0.45590        0.43720        0.31120
H          0.95220       -1.21860        0.85830
H          3.08710       -1.02640       -0.35520
H          4.76410        0.83220       -1.27380
H          2.92600        1.95590       -3.45430
H          4.79970        1.94520       -3.41930
H          3.78890        1.37170        3.07670
