9
1162	1
O          0.95290       -0.05150        0.08060
C          2.29830       -0.04240        0.08560
C          3.11770        1.05880        0.08720
N          4.37660        0.59250        0.09250
H          5.25530        1.15570        0.09510
N          4.32630       -0.73250        0.09410
N          3.06550       -1.14590        0.08990
H          0.45060        0.77540        0.07770
H          2.83400        2.10300        0.08480
