16
665	1
N          1.04160       -0.97450        0.07370
C          1.96620        0.08810        0.25970
N          1.81120        0.91800        1.23010
C          3.13050        0.25310       -0.68440
C          4.48530        0.15460        0.03430
C          4.71570       -1.21290        0.68240
F          4.68550       -2.21190       -0.27430
H          0.24270       -1.09220        0.71370
H          1.16140       -1.64160       -0.70200
H          1.02340        0.83000        1.88860
H          3.05120        1.25030       -1.16820
H          3.08890       -0.51530       -1.48630
H          4.55340        0.94500        0.81320
H          5.29380        0.33350       -0.70740
H          3.94250       -1.41840        1.45230
H          5.71000       -1.22250        1.17640
