13
4752	1
C          0.92650        0.12330        0.00760
C          2.41880        0.07610        0.01320
C          3.28340        1.15570        0.01610
O          4.52190        0.71300        0.02080
C          4.49900       -0.60100        0.02120
O          5.59710       -1.37710        0.02550
C          3.20060       -1.05820        0.01650
H          0.57040        1.17510        0.00590
H          0.53470       -0.38830        0.91140
H          0.54140       -0.38880       -0.89880
H          3.00650        2.20180        0.01470
H          6.47910       -0.98060        0.02870
H          2.86670       -2.08750        0.01560
