11
1251	2
F          0.72320       -0.36800       -0.13220
C          2.06570       -0.23410        0.02820
F          2.61360        1.01030        0.03140
C          2.82890       -1.32370        0.18050
N          4.24340       -1.21110        0.35100
C          5.12760       -2.32280        0.51940
N          4.72500       -3.54620        0.53300
H          2.33850       -2.28750        0.16980
H          4.66890       -0.27200        0.35500
H          6.18780       -2.12650        0.64140
H          3.74380       -3.82610        0.42520
