13
2121	2
F          2.84830       -0.19130        1.29600
C          2.19490        0.02390        0.09610
C          2.23030       -1.23550       -0.74270
C          1.07580       -1.82910       -1.08660
N          3.46880       -1.81010       -1.18120
C          4.67940       -1.26010       -0.90350
O          5.69910       -1.79640       -1.30720
H          2.68550        0.85440       -0.45330
H          1.15450        0.34060        0.32490
H          0.11980       -1.42110       -0.77250
H          1.07650       -2.73280       -1.68830
H          3.44340       -2.67890       -1.73870
H          4.76460       -0.34560       -0.32870
