17
1864	1
C          0.88720       -0.04590        0.26200
C          2.38960        0.26650        0.14280
C          2.77390        0.65550       -1.30180
C          2.52840       -0.45130       -2.24130
C          2.32790       -1.35910       -3.01050
C          2.73700        1.40090        1.08440
C          3.63830        1.26830        2.06930
H          0.61690       -0.92350       -0.36250
H          0.27120        0.82070       -0.06560
H          0.62640       -0.28680        1.31410
H          2.95980       -0.64690        0.42900
H          3.85570        0.91630       -1.33980
H          2.19730        1.54120       -1.63450
H          2.14550       -2.14980       -3.69200
H          2.23800        2.35650        0.95710
H          4.16990        0.33570        2.23600
H          3.85390        2.10970        2.72200
