15
3477	1
C          0.99130        0.08170        0.00410
C          2.51470        0.02930       -0.13580
C          3.05650       -0.44170       -1.47960
C          2.25120       -0.79880       -2.50270
C          4.56160       -0.49410       -1.63560
F          5.09450       -1.35750       -0.69610
F          4.95550       -0.91460       -2.89520
H          0.72640        0.43920        1.02150
H          0.55310       -0.92970       -0.13380
H          0.55670        0.78680       -0.73600
H          2.90440       -0.64830        0.65390
H          2.90920        1.05020        0.05690
H          1.17180       -0.77070       -2.42210
H          2.66130       -1.12990       -3.45080
H          4.97770        0.52090       -1.46500
