11
4482	1
N          1.02820       -0.08360       -0.03310
C          2.43870       -0.10780       -0.03780
N          3.21800        0.99390       -0.04500
N          4.46560        0.55300       -0.04750
H          5.31580        1.15930       -0.05290
C          4.40830       -0.79050       -0.04180
N          5.42900       -1.56440       -0.04210
O          3.16550       -1.20310       -0.03580
H          0.52520        0.81520       -0.03510
H          0.49650       -0.96560       -0.02760
H          6.38450       -1.17830       -0.04700
