10
5324	2
N          0.90380       -0.02250       -0.03350
C          2.31770        0.00190       -0.02830
C          3.01290        1.20640       -0.02100
N          4.36650        1.17920       -0.01620
N          5.01880        0.01710       -0.01840
N          4.35290       -1.13830       -0.02530
N          3.02050       -1.15650       -0.03020
H          0.36320        0.85490       -0.03200
H          0.40190       -0.92220       -0.03880
H          2.48900        2.15340       -0.01920
