11
192	2
N          0.79250        0.26250        0.30400
C          2.11910       -0.02440       -0.11350
N          2.95290        0.93750       -0.30900
N          2.51580       -1.38140       -0.31300
C          3.76850       -1.72170       -0.71140
O          4.06150       -2.89630       -0.86880
H          0.48690        1.23530        0.45340
H          0.12100       -0.50250        0.46200
H          2.67870        1.92100       -0.16850
H          1.82420       -2.12870       -0.14780
H          4.52180       -0.96150       -0.89450
