17
3340	1
C          1.08520        0.04300        0.48070
C          2.45330       -0.08240       -0.20750
C          2.85880       -1.51940       -0.43400
O          2.12070       -2.44460       -0.13060
C          2.46220        0.66390       -1.53310
C          1.53940        0.23940       -2.65290
C          3.29750        1.70090       -1.71470
H          1.10900       -0.46500        1.46860
H          0.27960       -0.41790       -0.12860
H          0.84150        1.11390        0.64830
H          3.20380        0.36100        0.48410
H          3.82650       -1.73500       -0.87570
H          0.48170        0.32590       -2.33190
H          1.74820       -0.81380       -2.93320
H          1.66860        0.86780       -3.56020
H          3.97040        2.02090       -0.92500
H          3.31830        2.24250       -2.65550
