12
64	1
N          1.12330        0.27820        0.15660
C          2.49760       -0.20410        0.08310
C          3.08270        0.10440       -1.27250
N          3.16750        1.44910       -1.71270
N          3.50900       -0.84030       -2.03470
H          0.74770        0.06920        1.10960
H          0.54100       -0.24290       -0.53780
H          2.51800       -1.29680        0.29280
H          3.10800        0.30690        0.85800
H          2.82910        2.21570       -1.11350
H          3.56630        1.67070       -2.63660
H          3.46400       -1.82900       -1.74750
