13
788	1
C          0.99620        0.35730        0.26240
C          2.47760        0.12470        0.15850
C          3.28670        0.78860       -0.93760
O          2.48890        1.60430       -1.75420
N          3.04910       -0.64750        1.01870
O          4.34380       -0.88490        0.97460
H          0.49540        0.01380       -0.66670
H          0.79650        1.43930        0.40960
H          0.56530       -0.20120        1.12110
H          3.80470        0.01800       -1.55340
H          4.07270        1.42360       -0.47730
H          2.06980        1.01020       -2.43040
H          4.75110       -1.46720        1.62970
