16
687	2
C          2.04480        0.23060       -0.65810
O          3.36610       -0.15150       -0.35080
C          3.39130       -0.76200        0.92130
C          4.83110       -1.17210        1.24420
C          4.97590       -1.83990        2.59200
N          6.19420       -2.25500        3.00830
O          4.00150       -2.00930        3.31150
H          2.04390        0.70750       -1.65960
H          1.66360        0.98750        0.06290
H          1.37070       -0.65280       -0.71790
H          2.75880       -1.68010        0.92630
H          3.04960       -0.04610        1.70470
H          5.47460       -0.26580        1.22760
H          5.18820       -1.87530        0.46090
H          7.02450       -2.11910        2.41290
H          6.30470       -2.71180        3.92580
