17
3312	1
C          3.89370       -0.92100       -0.57910
N          3.11640       -0.64890        0.63260
C          3.46560        0.64210        1.24920
C          2.49940        0.93480        2.39870
C          4.88820        0.63620        1.77350
F          5.25050       -0.27220        2.71900
C          5.79670        1.50750        1.32250
H          3.52580       -1.85790       -1.04620
H          4.97000       -1.05220       -0.33880
H          3.77150       -0.09740       -1.31400
H          3.25450       -1.43180        1.31450
H          3.32730        1.45160        0.49590
H          2.57280        0.15270        3.18520
H          1.45570        0.95940        2.01870
H          2.73130        1.92280        2.85220
H          5.53910        2.24480        0.56830
H          6.80980        1.48560        1.71040
