11
6119	1
N          0.98850        0.06690       -0.08500
C          2.40070        0.05160       -0.08080
C          3.23970        1.13980       -0.07710
N          4.50770        0.68300       -0.07380
H          5.37290        1.26700       -0.07060
N          4.50210       -0.64420       -0.07540
C          3.21870       -1.05240       -0.07960
F          2.82710       -2.34970       -0.08230
H          0.47970        0.96250       -0.08550
H          0.45950       -0.81700       -0.08750
H          2.95730        2.18450       -0.07670
