12
6013	1
C          0.90280       -0.05360        0.02420
N          2.36020       -0.07850        0.02820
C          3.19390        0.97980        0.03050
N          4.49010        0.59520        0.03420
C          4.45820       -0.75490        0.03420
C          3.14630       -1.16390        0.03050
F          2.70040       -2.44450        0.02930
H          0.53040        0.99310        0.02310
H          0.51780       -0.57010        0.92850
H          0.52290       -0.57010       -0.88230
H          2.87050        2.01280        0.02960
H          5.33400       -1.38980        0.03670
