14
3445	1
N          1.03150       -0.08010        0.11220
C          2.49610       -0.07260        0.06390
C          2.97740       -1.20240       -0.69550
C          3.37410       -2.13400       -1.32120
C          2.93490        1.28810       -0.55290
N          3.30240        2.32010        0.26020
N          2.92640        1.51840       -1.83340
H          0.71280       -1.01570        0.35310
H          0.67450        0.12000       -0.82110
H          2.87670       -0.11800        1.09000
H          3.73320       -2.96660       -1.88180
H          3.63710        2.12220        1.19290
H          3.75750        3.08280       -0.22730
H          2.61580        0.67950       -2.33520
