17
6299	1
C          0.93730        0.07780        0.19810
C          2.45930        0.01550        0.04100
N          3.20140        1.09860        0.70310
C          4.10320        0.06830        1.23580
C          5.43050        0.07710        0.46510
C          3.16050       -1.06680        0.84650
F          3.70620       -2.08930        0.08760
H          0.54620        0.97490       -0.32590
H          0.64830        0.13250        1.26940
H          0.47980       -0.82860       -0.25080
H          2.76800       -0.01710       -1.03000
H          2.63830        1.45320        1.51340
H          4.27920        0.14360        2.33350
H          5.26470        0.02130       -0.63230
H          6.05080       -0.78860        0.77900
H          5.98470        1.01190        0.69230
H          2.55970       -1.38010        1.72890
