21
38	1
C          1.36360        0.60460        1.26090
C          2.78280        0.42410        1.77840
O          3.50680       -0.34790        0.83790
C          4.86650       -0.61030        1.18700
C          5.44430       -1.44480        0.03100
C          5.70630        0.68320        1.30060
C          4.99080       -1.44730        2.48110
H          0.77240        1.20830        1.98170
H          0.87510       -0.38520        1.13530
H          1.37910        1.12810        0.28120
H          2.70020       -0.09140        2.75700
H          3.21090        1.44110        1.89130
H          5.37830       -0.88100       -0.92480
H          4.87170       -2.39000       -0.08850
H          6.51060       -1.70190        0.21310
H          5.62280        1.28260        0.36880
H          6.77780        0.43760        1.46630
H          5.38740        1.30880        2.15870
H          4.39260       -2.38010        2.39830
H          4.65150       -0.88270        3.37300
H          6.05160       -1.72460        2.66430
