14
3402	1
C          0.97950        0.04720        0.16340
N          2.44280        0.02950        0.13750
C          3.11310       -0.99480        0.76080
O          2.50640       -1.88770        1.33440
C          3.15370        1.09920       -0.54920
N          4.57870        1.14280       -0.61180
N          2.50630        2.05390       -1.13000
H          0.53380       -0.80950        0.71030
H          0.58340        0.00700       -0.87360
H          0.62240        0.97050        0.66740
H          4.18740       -1.05170        0.76920
H          5.18950        0.43920       -0.18680
H          5.03620        1.92080       -1.10970
H          1.48100        2.12480       -1.14880
