12
5637	1
O          1.24970        0.11730        0.85530
N          2.44410        0.16210        0.24620
C          3.19910        1.35730        0.01890
C          4.46690        0.79340       -0.70180
O          4.26480       -0.58040       -0.76730
C          3.09530       -0.89600       -0.21390
O          2.66990       -2.03770       -0.13770
H          0.58680        0.25590        0.13090
H          3.45580        1.83270        0.98980
H          2.62920        2.05210       -0.63470
H          5.38620        1.01180       -0.11740
H          4.55560        1.20610       -1.72940
