11
2501	1
O          0.79040       -0.22830       -0.93270
N          2.10050       -0.13690       -1.00840
C          2.84500       -1.08550       -0.56660
C          4.34120       -0.97960       -0.65640
O          4.92260       -1.01120        0.62130
C          4.88250       -2.05820       -1.49600
N          5.30840       -2.90810       -2.15600
H          0.23560        0.48710       -1.27100
H          2.39520       -1.97230       -0.12560
H          4.62120       -0.01480       -1.13180
H          4.70020       -1.88680        1.03660
