13
185	3
C          0.99710        0.14780        0.15550
C          2.50090        0.01170        0.18040
N          3.20460        0.80690        0.90770
N          3.16560       -0.98820       -0.59170
C          2.46660       -1.91030       -1.42430
N          3.10850       -2.79340       -2.10110
H          0.64800        0.97340        0.81130
H          0.53040       -0.79470        0.51050
H          0.65820        0.36330       -0.87930
H          2.77100        1.54450        1.48240
H          4.19480       -1.04340       -0.54310
H          1.38560       -1.88110       -1.49930
H          4.13630       -2.85670       -2.05940
