15
4116	1
C          2.71430       -0.22670       -1.67530
C          2.53990       -0.02370       -0.16580
C          3.05650       -1.14430        0.76500
F          2.98140       -0.89390        2.12550
C          3.08420       -2.60820        0.37970
C          4.38250       -1.77570        0.38390
F          5.16000       -2.21650        1.44050
H          2.30580        0.65770       -2.20820
H          2.15920       -1.11690       -2.03260
H          3.78610       -0.31690       -1.94520
H          1.45810        0.11620        0.04320
H          3.06400        0.91480        0.11540
H          2.51070       -2.73390       -0.55830
H          2.83310       -3.19750        1.28780
H          4.78410       -1.92400       -0.63930
