15
928	3
C          0.55360        0.41530        0.69870
N          1.99070        0.29650        0.80770
C          2.68710        1.02420        1.61040
N          4.09940        0.85710        1.66940
C          4.88150        1.60080        2.50030
C          6.36770        1.39360        2.53250
O          4.38490        2.44670        3.23100
H          0.08720       -0.55920        0.95140
H          0.28800        0.67950       -0.34560
H          0.14250        1.19380        1.37860
H          2.19860        1.76410        2.24120
H          4.53800        0.14870        1.06100
H          6.68330        0.59960        1.82350
H          6.67900        1.09750        3.55620
H          6.88020        2.33870        2.25590
