19
1503	1
C          1.64530        0.29300       -1.16810
C          2.59390        0.31430        0.04190
C          2.50260        1.69780        0.71890
O          3.51800        1.85920        1.66800
C          2.24060       -0.88980        0.96030
C          3.15370       -1.12360        2.17040
O          2.94720       -0.14840        3.15220
H          1.90440        1.10550       -1.88040
H          0.59050        0.42670       -0.84390
H          1.73150       -0.67150       -1.71290
H          3.62810        0.18300       -0.34760
H          1.49950        1.82260        1.18610
H          2.64580        2.48260       -0.05830
H          3.36950        2.74790        2.08400
H          2.32460       -1.80490        0.33270
H          1.18710       -0.81820        1.31060
H          4.21630       -1.14270        1.84020
H          2.88540       -2.11200        2.60670
H          3.58000       -0.35860        3.88720
