12
6244	1
C          1.17080        0.15030       -0.05190
C          2.66120        0.06740       -0.05370
N          3.49330        1.12460       -0.06050
N          4.72960        0.63790       -0.05980
O          4.69000       -0.66560       -0.05300
C          3.44300       -1.05960       -0.04900
N          3.01670       -2.40590       -0.04130
H          0.84610        1.21200       -0.05690
H          0.77070       -0.34580        0.85690
H          0.76790       -0.35520       -0.95410
H          3.71160       -3.16590       -0.03840
H          2.01280       -2.63600       -0.03860
