15
920	1
C          0.82230       -0.05820        0.01200
C          2.30480        0.16510       -0.04240
C          3.06240       -0.37710       -1.00740
N          4.47060       -0.15000       -1.03580
C          5.26800       -0.68480       -2.00210
N          6.60080       -0.44540       -1.99130
O          4.78990       -1.38370       -2.88530
H          0.56150       -0.54400        0.97500
H          0.46610       -0.70410       -0.81910
H          0.30280        0.92030       -0.05180
H          2.76410        0.78270        0.72420
H          2.59530       -0.99390       -1.77140
H          4.89770        0.43670       -0.30190
H          7.02480        0.14010       -1.25670
H          7.20820       -0.84800       -2.72050
