8
1049	1
O          0.95640        0.14030       -0.41240
N          2.29150        0.04670       -0.20880
C          3.18050        1.04540       -0.17650
N          4.40500        0.53130        0.04610
N          4.23500       -0.78360        0.14470
N          2.95150       -1.07690       -0.01110
H          0.56560        0.22760        0.49450
H          2.95450        2.09520       -0.30810
