12
6043	1
C          0.90690        0.08530       -0.05810
N          2.36300        0.05110       -0.06220
N          3.13390        1.12700       -0.06650
C          4.41980        0.71620       -0.06940
C          4.45400       -0.66710       -0.06670
C          3.13310       -1.04950       -0.06220
F          2.66460       -2.32200       -0.05840
H          0.54690        1.13610       -0.05910
H          0.52300       -0.42580        0.84970
H          0.51790       -0.42930       -0.96180
H          5.27370        1.38010       -0.07310
H          5.32680       -1.30600       -0.06800
