13
3036	1
C          0.98490       -0.01830       -0.10400
C          2.48070       -0.04670        0.05570
C          3.15900       -0.46520        1.13900
C          2.56360       -0.98990        2.38400
O          3.26920       -1.33670        3.32430
C          3.25340        0.42120       -1.05540
C          3.89810        0.81410       -1.98880
H          0.43880       -0.33170        0.78740
H          0.68140       -0.67920       -0.92350
H          0.65100        0.99750       -0.34380
H          4.24610       -0.44290        1.15990
H          1.46830       -1.05910        2.43240
H          4.47170        1.16250       -2.81640
