12
2513	1
N          1.14930        0.44190        0.30540
N          2.50530        0.33150       -0.00500
C          2.96530        0.71030       -1.23020
O          2.19920        1.15180       -2.07350
C          3.42260       -0.18150        0.96340
C          3.02250       -0.56810        2.18200
F          3.92940       -1.05010        3.07100
H          0.60090       -0.14200       -0.36730
H          0.86430        1.44460        0.21930
H          4.02100        0.62420       -1.47190
H          4.47790       -0.26470        0.71390
H          1.98100       -0.50480        2.47870
