10
4605	2
O          0.97390       -0.07240       -0.08270
C          2.31940       -0.05320       -0.07700
C          3.11830        1.07220       -0.07540
C          4.40050        0.57160       -0.06910
F          5.54520        1.29680       -0.06540
N          4.35090       -0.77310       -0.06710
H          5.16710       -1.42370       -0.06260
N          3.08480       -1.16100       -0.07190
H          0.46470        0.75020       -0.08620
H          2.80960        2.10910       -0.07840
