15
5245	1
C          0.96640        0.24990       -0.03300
C          2.47350        0.02980        0.10490
O          3.20110        1.19970       -0.27370
C          3.49090        1.22220       -1.65880
O          4.20450        0.09660       -2.02270
C          3.78090       -1.12630       -1.63380
C          2.91420       -1.22610       -0.62380
H          0.66100        1.13800        0.55980
H          0.41370       -0.63540        0.34820
H          0.68480        0.41320       -1.09410
H          2.70030       -0.14370        1.17850
H          4.09250        2.12310       -1.89740
H          2.55020        1.28980       -2.24840
H          4.14220       -2.01500       -2.14060
H          2.53990       -2.19830       -0.31710
