16
28	1
C          1.01620       -0.05900       -0.07000
C          2.55410       -0.08440       -0.04060
C          3.03400       -1.53300        0.19320
C          3.10500        0.42070       -1.38530
C          3.03370        0.84320        1.05950
O          3.71310        0.43290        1.98880
H          0.62770       -0.71570       -0.87840
H          0.64250        0.97240       -0.25140
H          0.60130       -0.41430        0.89830
H          2.67560       -2.20110       -0.61970
H          2.64640       -1.92410        1.15890
H          4.14440       -1.58000        0.21570
H          2.75830       -0.22640       -2.21990
H          4.21670        0.41600       -1.37810
H          2.76250        1.45920       -1.58620
H          2.76910        1.89580        1.02320
