11
2329	2
C          1.36260        0.03960       -0.20660
N          2.63120        0.13560       -0.01870
N          3.24600       -0.54320        1.00980
C          4.65360       -0.47120        1.21150
N          5.40900        0.23800        0.44800
C          5.24320       -1.21400        2.29530
N          5.70320       -1.81590        3.16980
H          0.89220        0.57950       -1.02000
H          0.75010       -0.58290        0.44090
H          2.68390       -1.12550        1.65070
H          5.03470        0.78540       -0.34010
