12
5315	2
C          0.96930       -0.04660       -0.00730
C          2.30230       -0.01300       -0.08770
C          2.99460        1.20260       -0.10100
N          4.34930        1.18630       -0.18390
N          5.02020        0.03510       -0.25200
C          4.36070       -1.15360       -0.24000
N          3.00600       -1.17260       -0.15800
H          0.38790        0.86980        0.04980
H          0.44370       -0.99710        0.00210
H          2.47100        2.14950       -0.04670
H          6.06210        0.04920       -0.31510
H          4.91160       -2.08330       -0.29560
