14
1065	1
N          3.48750        0.52690        1.39530
C          2.66620       -0.07670        0.39860
N          1.42980       -0.31590        0.65770
C          3.18730       -0.44630       -0.94660
C          4.45750       -0.25100       -1.34550
C          4.91040       -0.65020       -2.72010
F          5.93530       -1.57110       -2.61420
H          3.08920        0.76800        2.31470
H          4.47950        0.73600        1.23290
H          1.01740       -0.08040        1.57250
H          2.48700       -0.90250       -1.64210
H          5.19280        0.19860       -0.69300
H          5.28390        0.24790       -3.25450
H          4.08810       -1.09790       -3.31850
