13
4739	1
C          0.89070        0.00840       -0.07580
C          2.38340       -0.02590       -0.07080
C          3.23470        1.06340       -0.06790
N          4.51090        0.63510       -0.06370
H          5.36570        1.23440       -0.06080
C          4.47690       -0.71010       -0.06390
F          5.58120       -1.49570       -0.06020
C          3.17310       -1.15850       -0.06830
H          0.52500        1.05690       -0.07700
H          0.50370       -0.50690        0.82790
H          0.50980       -0.50680       -0.98220
H          2.94240        2.10560       -0.06880
H          2.83880       -2.18760       -0.06950
