19
1686	1
C          3.17430        0.66940       -1.17570
C          2.57860       -0.14330       -0.03510
C          3.08880        0.26860        1.36090
C          2.40420       -0.58480        2.43620
C          4.61910        0.23370        1.51760
C          5.21680       -1.07620        1.21190
C          5.69700       -2.14340        0.94420
H          2.71570        0.37360       -2.12490
H          4.25200        0.50600       -1.26870
H          2.99570        1.73940       -1.03130
H          2.77150       -1.20770       -0.21530
H          1.48810       -0.02060       -0.06190
H          2.77590        1.30770        1.53390
H          2.62650       -1.64980        2.31020
H          1.31650       -0.46320        2.39120
H          2.73010       -0.28510        3.43800
H          4.88630        0.51720        2.54420
H          5.07470        0.99650        0.87240
H          6.11520       -3.09520        0.70980
