15
3839	1
C          0.84180        0.20450       -0.18670
C          2.34150       -0.04220       -0.12350
N          3.05390        0.51560        0.80600
N          2.54030        1.34700        1.77920
C          3.05940       -0.92530       -1.11240
N          4.46370       -1.11060       -0.98860
N          2.45080       -1.52720       -2.07670
H          0.37120       -0.14060        0.75790
H          0.30840       -0.30470       -1.00370
H          0.65180        1.29070       -0.31700
H          3.17480        1.75030        2.48230
H          1.53970        1.58210        1.83050
H          5.00000       -0.65420       -0.23730
H          4.96650       -1.71170       -1.65810
H          1.44480       -1.46510       -2.26000
