11
750	1
C          2.91060       -0.15460        1.32110
C          2.32560        0.22730        0.17810
C          3.09770        0.63090       -1.02980
C          2.44700        1.00190       -2.14030
C          4.50370        0.63090       -1.02980
N          5.65470        0.63090       -1.02980
H          2.29810       -0.43840        2.17070
H          3.99020       -0.18900        1.42400
H          1.23950        0.24110        0.13690
H          1.36130        1.01220       -2.17110
H          2.99170        1.30010       -3.03260
