15
1699	1
N          1.08210       -0.03550       -0.05860
C          2.54580       -0.03160       -0.01600
C          3.28610       -0.48860       -1.26320
C          3.09330        1.00890       -0.98640
C          4.41780        1.63510       -0.63660
C          5.44720        1.62140       -1.48930
H          0.75140       -0.89220        0.43900
H          0.70580       -0.06590       -1.03410
H          3.02990        0.11570        0.97380
H          2.55350       -1.02530       -1.90220
H          4.16790       -1.03610       -0.86600
H          2.54050        1.38770       -1.87310
H          4.53190        2.12140        0.32710
H          5.35690        1.14900       -2.46270
H          6.38720        2.08690       -1.21190
