17
2897	1
C          3.98950       -1.21110        1.32940
N          4.98050       -0.47930        0.58400
N          4.57850        0.42740       -0.37460
C          5.40220        1.12640       -1.08830
C          6.89930        1.00770       -0.93430
C          4.84530        2.08420       -2.10620
O          5.26470        3.39210       -1.82790
H          4.48460       -1.89220        2.05370
H          3.36750       -1.81290        0.63410
H          3.34050       -0.50220        1.88500
H          5.97750       -0.64790        0.78250
H          7.19770        1.28420        0.09870
H          7.42470        1.68640       -1.63910
H          7.22200       -0.03180       -1.15360
H          3.73220        2.04110       -2.14130
H          5.21190        1.79810       -3.11420
H          4.72080        3.70680       -1.05900
