13
1803	1
C          0.88290       -0.05750        0.03630
C          2.41250       -0.01410        0.06070
C          2.91820        1.39760       -0.28450
C          4.38200        1.42760       -0.41720
N          5.53380        1.44570       -0.52760
C          2.89270       -0.43280        1.39040
N          3.26740       -0.75760        2.43620
H          0.51220        0.22070       -0.97360
H          0.45230        0.64580        0.78150
H          0.52470       -1.08540        0.26150
H          2.78710       -0.73430       -0.69950
H          2.60270        2.12670        0.49390
H          2.49050        1.71890       -1.25780
