11
4684	1
C          0.98480        0.06840        0.07160
N          2.44080        0.08350        0.07630
C          3.24130        1.16190        0.07760
C          4.52930        0.68570        0.08230
F          5.66840        1.41900        0.08520
N          4.48170       -0.66070        0.08380
N          3.19970       -1.00180        0.08010
H          0.58300        1.10420        0.06910
H          0.61570       -0.45860        0.97620
H          0.62150       -0.46070       -0.83400
H          2.91390        2.19350        0.07530
