13
4288	2
N          1.23880       -0.05530        0.38520
C          2.46680        0.03620        0.02400
C          3.24690        1.33350       -0.10300
N          4.54360        0.83070       -0.53390
C          4.50640       -0.57260       -0.63870
N          5.50150       -1.29920       -0.99750
N          3.25560       -1.07850       -0.30490
H          0.69560        0.78860        0.61800
H          3.33000        1.85550        0.87350
H          2.80550        1.99980       -0.87370
H          5.36650        1.41820       -0.73240
H          6.40790       -0.87020       -1.23420
H          2.96640       -2.06760       -0.29980
