13
1626	1
O          2.04290       -0.50050       -1.22310
C          2.05670        0.72000       -1.17050
C          3.27500        1.46980       -0.70610
C          4.42090        0.52460       -0.29600
C          5.39400        0.17030       -1.32330
N          5.75270        1.15160       -0.26660
H          1.17360        1.27590       -1.46740
H          2.99570        2.08300        0.17610
H          3.58530        2.15620       -1.52380
H          4.29360       -0.19580        0.53970
H          5.37930        0.68070       -2.31270
H          5.98700       -0.75240       -1.15430
H          5.71440        2.10920       -0.68750
