14
1924	1
N          0.98580        0.02510        0.02460
C          2.44370       -0.07480        0.07270
C          2.87930       -1.29610        0.90780
C          4.32800       -1.30030        1.16770
C          5.51430       -1.31500        1.38800
C          2.94650       -0.15670       -1.30570
C          3.34340       -0.24880       -2.43900
H          0.60820        0.08240        0.99780
H          0.57840       -0.82090       -0.43600
H          2.83920        0.85340        0.53960
H          2.58580       -2.24250        0.40530
H          2.37170       -1.26090        1.89460
H          6.55600       -1.32630        1.58030
H          3.69270       -0.32810       -3.43310
