14
1239	1
C          1.25580        0.08880        0.44960
N          2.69710       -0.01420        0.21770
C          3.00580       -1.18570       -0.60950
C          4.51190       -1.27020       -0.86190
C          4.82840       -2.44370       -1.68390
N          5.07640       -3.37170       -2.32930
H          1.04750        0.97350        1.08740
H          0.87270       -0.81740        0.96900
H          0.71720        0.22280       -0.51310
H          3.16870       -0.11850        1.14690
H          2.48180       -1.10080       -1.58860
H          2.66530       -2.11450       -0.09640
H          5.05440       -1.35680        0.10350
H          4.85850       -0.35610       -1.38920
