11
199	1
N          3.02430       -1.54990       -0.45680
C          2.41760       -0.35990       -0.21650
O          1.32650       -0.13100       -0.71720
N          3.00190        0.58200        0.57130
N          4.23140        0.35870        1.15240
C          4.78990        1.24450        1.89820
H          2.56570       -2.25160       -1.05680
H          3.94350       -1.77650       -0.05150
H          2.51020        1.47640        0.73190
H          5.75790        1.04060        2.34210
H          4.30650        2.19790        2.09210
