15
5944	1
C          1.08050       -0.00910        0.21750
C          2.56730        0.04060        0.02650
C          3.34900       -0.98780       -0.22210
O          4.64310       -0.61580       -0.34210
C          4.82090        0.75330       -0.17330
C          3.41760        1.20870        0.07750
C          3.03360        2.46830        0.30570
H          0.70240       -1.04920        0.12160
H          0.58690        0.62310       -0.54970
H          0.82350        0.37340        1.22720
H          3.01100       -2.01110       -0.32090
H          5.23560        1.21160       -1.09610
H          5.47480        0.95910        0.70050
H          3.76720        3.26810        0.32040
H          1.98890        2.70600        0.47810
