11
3381	1
C          1.19610        0.37180        0.40220
C          2.06380       -0.21420       -0.66310
O          2.02640       -1.41580       -0.89680
C          3.01450        0.67420       -1.40680
F          2.53580        1.97190       -1.43580
C          4.31900        0.67960       -0.73430
N          5.34940        0.68150       -0.21000
H          0.56810       -0.40400        0.87660
H          0.54140        1.14840       -0.04120
H          1.84200        0.83760        1.17620
H          3.10770        0.33370       -2.45550
