18
2853	1
C          1.82120        0.35670        1.35410
C          2.72430        0.25000        0.12730
C          3.03330        1.60730       -0.47660
C          1.88610        2.43190       -1.02600
C          4.31920        2.03310       -0.52390
C          4.73900        3.35360       -1.10740
F          6.11060        3.49500       -1.00400
H          1.63930       -0.65760        1.76800
H          0.83860        0.79940        1.09110
H          2.30870        0.97780        2.13560
H          2.23090       -0.38420       -0.64000
H          3.65680       -0.26800        0.44240
H          1.36490        1.85050       -1.81470
H          2.19750        3.39590       -1.47260
H          1.16470        2.66820       -0.21820
H          5.10290        1.39720       -0.12050
H          4.25440        4.18530       -0.55380
H          4.45830        3.40240       -2.18060
