16
230	1
C          1.22970       -0.10370        0.50300
N          2.39600       -0.42850       -0.32570
C          2.42980       -1.85880       -0.64950
N          2.32390        0.30080       -1.51350
C          3.29900        1.18630       -1.85230
N          4.37050        1.39070       -1.04550
O          3.20880        1.80810       -2.90020
H          1.28550       -0.64990        1.46870
H          0.27990       -0.36840       -0.01270
H          1.22300        0.98380        0.73070
H          2.52240       -2.45760        0.28180
H          3.31690       -2.07790       -1.28180
H          1.51270       -2.17160       -1.19690
H          1.51980        0.16820       -2.14970
H          4.47630        0.88460       -0.15490
H          5.10110        2.06510       -1.31720
