13
1571	1
N          0.99950       -0.08060       -0.07390
C          2.15600       -0.08050       -0.03580
C          3.62430       -0.08030        0.01320
C          4.27430        0.97940        0.90560
C          5.30960       -0.08010        1.28550
C          4.27460       -1.13980        0.90560
H          4.10610       -0.08030       -0.99250
H          3.63030        1.16720        1.79840
H          4.62510        1.92640        0.44330
H          5.72660       -0.08000        2.31490
H          6.11610       -0.08000        0.51410
H          3.63060       -1.32770        1.79850
H          4.62550       -2.08680        0.44340
