10
5816	1
F          0.84100        0.06180       -0.15830
C          2.20320        0.04950        0.07790
C          2.84420       -1.16200       -0.51960
C          3.73820       -0.78620       -1.49540
O          3.77790        0.54170       -1.63340
C          2.91190        1.07660       -0.75530
O          2.73150        2.27950       -0.65750
H          2.42680        0.15360        1.16020
H          2.64300       -2.18630       -0.23530
H          4.33520       -1.47180       -2.08160
