18
3114	1
C          1.66150        0.70320        0.38000
C          3.10380        0.22960        0.21540
C          3.43200       -0.08440       -1.25280
F          3.25640        1.05320       -2.02580
C          4.87560       -0.60960       -1.40720
C          5.18510       -1.00250       -2.85660
O          5.81410        0.32990       -0.94350
H          1.45890        0.91150        1.45170
H          0.95580       -0.08050        0.03100
H          1.48840        1.63480       -0.19940
H          3.24620       -0.68610        0.83000
H          3.78570        1.02110        0.59500
H          2.72960       -0.86830       -1.61330
H          4.97900       -1.52810       -0.78870
H          5.10540       -0.12220       -3.52940
H          4.47540       -1.78390       -3.20260
H          6.21650       -1.40890       -2.92350
H          5.74440        1.13740       -1.51720
