13
4804	2
N          1.04880       -0.04240        0.21090
C          2.45460       -0.04930        0.05260
N          3.15830       -1.12620        0.07180
C          4.57950       -0.83880       -0.11520
C          4.53090        0.65760       -0.24680
N          5.53500        1.43480       -0.43150
N          3.21560        1.10310       -0.13900
H          0.53700       -0.92570        0.34960
H          0.53000        0.84710        0.18800
H          4.96260       -1.31660       -1.04130
H          5.16770       -1.15030        0.77350
H          6.48870        1.05160       -0.50420
H          2.87720        2.07500       -0.18970
