15
409	1
C          0.92110        0.04710        0.17490
C          2.45130        0.04660        0.06810
N          2.94530        0.01680       -1.30980
C          3.19330        1.07520        0.89070
O          3.98110        0.08000        1.50770
C          3.19570       -0.94320        0.93510
H          0.50760        0.93890       -0.34130
H          0.59770        0.07070        1.23740
H          0.50990       -0.86830       -0.30050
H          2.58260        0.85250       -1.82390
H          2.58470       -0.84160       -1.78660
H          2.56140        1.55700        1.67110
H          3.79980        1.78650        0.28790
H          2.56490       -1.39180        1.73590
H          3.80390       -1.67880        0.36390
