11
4791	1
C          1.05740        0.01160       -0.07140
C          2.54960       -0.00190       -0.06750
C          3.38370        1.09410       -0.06840
O          4.61650        0.64920       -0.06400
C          4.56430       -0.66420       -0.06050
F          5.65520       -1.46760       -0.05550
N          3.29600       -1.12110       -0.06250
H          0.67660        1.05480       -0.07520
H          0.67960       -0.50720        0.83400
H          0.68420       -0.51200       -0.97600
H          3.09790        2.13770       -0.07200
