19
1320	1
C          0.79450       -0.02560        0.07490
C          2.31800       -0.17060        0.01230
C          3.12510        0.82850        0.81410
O          3.88610       -0.19350        1.43100
C          3.03980       -1.18540        0.89280
C          2.20360       -1.82740        2.01580
C          3.82010       -2.23700        0.09130
H          0.49040        0.88040       -0.48980
H          0.42520        0.07870        1.11530
H          0.31980       -0.91340       -0.39230
H          2.71210       -0.19910       -1.02890
H          2.53160        1.34780        1.60070
H          3.73960        1.50150        0.17740
H          1.70590       -1.05590        2.63990
H          2.86190       -2.42270        2.68370
H          1.43280       -2.50030        1.58370
H          4.47310       -1.75310       -0.66640
H          3.11470       -2.92070       -0.42710
H          4.46590       -2.83270        0.77080
