14
3694	2
C          1.59920        0.20740        0.79750
N          3.04670        0.21010        0.77630
C          3.73920        0.60830       -0.33220
O          3.12210        0.96950       -1.32540
C          5.24110        0.62170       -0.38400
N          5.88870        1.04970       -1.57380
N          5.97170        0.25820        0.61430
H          1.23510       -0.14810        1.78490
H          1.20830       -0.47160        0.00990
H          1.21430        1.23550        0.62690
H          3.53260       -0.09880        1.62620
H          5.34540        1.34900       -2.39600
H          6.91790        1.06520       -1.62670
H          5.60050       -0.06590        1.51400
