13
5492	1
C          1.03600        0.07620       -0.00050
C          2.53060        0.11860       -0.06910
C          3.21660        1.33820       -0.09650
C          4.60880        1.32010       -0.16060
N          5.27020        0.13420       -0.19490
C          4.59060       -1.04250       -0.16760
N          3.23270       -1.04570       -0.10530
H          0.59770        1.09670        0.02320
H          0.72310       -0.46440        0.91710
H          0.64010       -0.45800       -0.88940
H          2.68530        2.28150       -0.06900
H          5.16400        2.24830       -0.18300
H          5.13140       -1.97840       -0.19560
