16
6272	1
N          1.01890       -0.07510       -0.11150
C          2.47980       -0.05570       -0.09170
C          3.12550        1.00400        0.81080
C          4.18120       -0.04620        1.17720
F          5.20590        0.00490        0.24060
C          3.14530       -1.11420        0.79550
N          3.65890       -2.29940        0.11110
H          0.68540        0.79430       -0.58630
H          0.63880       -0.07930        0.86280
H          2.93800       -0.02620       -1.10850
H          2.48450        1.17190        1.70900
H          3.45380        1.96440        0.36010
H          4.59310       -0.04830        2.20850
H          2.51700       -1.35720        1.68560
H          4.20930       -2.02860       -0.73530
H          2.84440       -2.87130       -0.20720
