16
5698	1
C          1.15780        0.02430        0.19930
C          2.65980       -0.05310       -0.07560
N          2.94820       -1.12960       -0.98610
N          3.53340       -0.69940       -2.13270
C          3.69250        0.55810       -2.12920
C          3.18950        1.19520       -0.86320
N          4.28230        1.86870       -0.16300
H          0.81710       -0.90690        0.69980
H          0.59210        0.14660       -0.74950
H          0.93850        0.88570        0.86470
H          3.21560       -0.21110        0.87470
H          2.74470       -2.12270       -0.80170
H          4.14290        1.09140       -2.95610
H          2.38470        1.92170       -1.11130
H          5.04660        1.18890        0.05780
H          3.91990        2.26120        0.73540
