13
2415	1
O          1.00100       -0.02890        0.28890
C          2.40650       -0.01290        0.24880
C          2.93760        1.02850        1.23550
F          2.45700        2.28310        0.90570
C          2.98360       -1.37270        0.58060
C          2.23110       -2.43790        0.88850
F          2.82690       -3.62490        1.17360
H          0.68450        0.70200       -0.30400
H          2.75250        0.24120       -0.78010
H          4.04800        1.05620        1.20300
H          2.61500        0.77860        2.26910
H          4.06390       -1.48760        0.56590
H          1.14850       -2.37740        0.91700
