15
624	1
C          0.76040       -0.42930       -0.38820
C          2.27950       -0.21940       -0.38670
O          2.70910        0.21870       -1.65030
C          2.70860        0.75310        0.73210
O          4.08620        0.84500        0.84280
C          4.89580        1.52240       -0.01230
O          4.43530        2.22170       -0.90180
H          0.48180       -1.15700       -1.17970
H          0.23280        0.52930       -0.58120
H          0.42570       -0.83090        0.59190
H          2.75140       -1.20600       -0.18680
H          2.23510        1.06840       -1.85050
H          2.32990        0.34480        1.69360
H          2.25920        1.76210        0.59800
H          5.97020        1.47440        0.12450
