13
5376	2
C          0.97740       -0.06580        0.10160
N          2.44050       -0.08070        0.06600
N          3.13080        1.06410        0.00240
C          4.48760        1.04810       -0.03050
N          5.14010       -0.13880        0.00160
N          4.45780       -1.28070        0.06490
C          3.10250       -1.27050        0.09800
H          0.58280        0.97190        0.06900
H          0.61910       -0.54670        1.03660
H          0.57430       -0.62060       -0.77220
H          2.63500        1.98390       -0.02270
H          5.04580        1.97370       -0.08190
H          2.55900       -2.20600        0.14950
