12
123	1
C          0.87450        0.13700       -0.12170
C          2.38310       -0.09470        0.03270
O          3.07800        0.43840       -1.06730
C          2.93020        0.47750        1.35070
F          2.28870       -0.10990        2.42690
F          4.28440        0.21140        1.44390
F          2.73770        1.84720        1.40530
H          0.52080       -0.31810       -1.07100
H          0.64290        1.22330       -0.14010
H          0.32200       -0.33330        0.71920
H          2.55560       -1.19300        0.04050
H          2.89480        1.41380       -1.09950
