12
3614	1
C          0.96680       -0.18460        0.93130
N          2.12680        0.08360        0.10300
O          3.26120       -0.58870        0.36230
C          2.11120        0.98210       -0.93390
O          3.13100        1.14600       -1.58750
C          0.91490        1.78240       -1.32000
O         -0.14980        1.69360       -0.73170
H          0.65070        0.73890        1.46090
H          1.21370       -0.94770        1.70000
H          0.13620       -0.58490        0.31220
H          3.73980       -0.03910        1.03550
H          0.99390        2.47060       -2.15570
