12
1633	1
N          1.75060       -0.75070        1.60830
C          2.57770       -0.41170        0.87330
C          3.62430        0.01790       -0.05750
N          4.28390        1.22510        0.47360
C          4.98930        1.97140       -0.59290
C          3.71300        2.47670       -0.07750
H          3.16920        0.14820       -1.06640
H          4.37550       -0.79650       -0.13060
H          4.98150        1.45530       -1.57900
H          5.90200        2.44420       -0.17420
H          2.79290        2.31070       -0.68000
H          3.77990        3.27720        0.68840
