15
2936	1
C          2.98360        1.11120       -0.41120
O          2.40460       -0.09570       -0.07150
C          3.07060       -1.25080        0.22350
C          2.23820       -2.45640        0.56890
C          4.42800       -1.31780        0.20820
C          5.18410       -2.55090        0.52200
O          6.40360       -2.53720        0.48830
H          2.18310        1.85730       -0.59260
H          3.58100        1.00390       -1.34160
H          3.62450        1.47850        0.41870
H          1.15820       -2.20120        0.52660
H          2.47330       -2.80250        1.59760
H          2.43020       -3.27520       -0.15630
H          5.01060       -0.43810       -0.04320
H          4.67690       -3.47280        0.78290
