14
1061	1
C          2.05510       -0.31540       -0.90300
C          3.39060        0.01380       -0.31010
O          4.39770       -0.08250       -0.99670
C          3.47770        0.45300        1.10260
C          4.65340        0.75990        1.68020
C          4.75850        1.20740        3.11360
F          3.52680        1.26150        3.74420
H          2.16130       -0.62620       -1.96440
H          1.39580        0.57650       -0.85620
H          1.58800       -1.14550       -0.33270
H          2.55650        0.52360        1.67320
H          5.57320        0.68830        1.10670
H          5.21900        2.21660        3.14440
H          5.41070        0.49980        3.66630
