15
1734	1
C          1.28590       -0.08120        0.32920
C          2.78280        0.15390        0.10490
C          3.17130       -0.15600       -1.35160
C          4.67650        0.07750       -1.56310
F          5.38960       -0.80580       -0.77000
C          5.03570       -0.14870       -2.96710
N          5.32010       -0.32680       -4.08750
H          1.01970        0.20300        1.36790
H          1.03630       -1.15210        0.17870
H          0.68490        0.53370       -0.37210
H          3.35430       -0.49430        0.79970
H          3.01880        1.21290        0.33690
H          2.59060        0.50360       -2.03220
H          2.92490       -1.21120       -1.58200
H          4.94980        1.10980       -1.28680
