15
1274	2
C          0.90700       -0.03680       -0.09860
C          2.40710       -0.08010        0.03190
N          2.96000       -0.34690        1.31790
C          3.17790        0.13310       -1.06280
C          4.65900        0.11820       -1.07110
N          5.28310        0.33430       -2.17200
O          6.59830        0.32640       -2.20560
H          0.50300        0.75490        0.56640
H          0.48320       -1.01590        0.20760
H          0.57460        0.17740       -1.13710
H          2.33060       -0.50210        2.11870
H          3.97100       -0.39300        1.48930
H          2.68750        0.33120       -2.01290
H          5.23180       -0.07050       -0.17200
H          7.06150        0.48990       -3.03800
