17
5710	1
C          1.05090        0.16190        0.26660
C          2.55470        0.05300       -0.00080
C          2.90760       -1.17600       -0.90010
N          3.54850       -0.59140       -2.06250
C          3.59810        0.67290       -1.97760
N          3.03710        1.15210       -0.79960
C          2.99240        2.54660       -0.41770
H          0.70460       -0.73090        0.82900
H          0.48810        0.22880       -0.68920
H          0.83300        1.06260        0.87740
H          3.11690        0.01360        0.95810
H          2.00640       -1.73940       -1.22650
H          3.61570       -1.85750       -0.38200
H          4.04080        1.29900       -2.74120
H          3.45710        3.18370       -1.20030
H          3.54580        2.68990        0.53380
H          1.93980        2.87010       -0.28270
