13
6321	1
C          1.01320        0.13750        0.11940
C          2.50880        0.00080       -0.15790
N          3.27670        0.97260        0.56130
C          3.89620        0.08000        1.27280
O          4.75010        0.26770        2.12440
C          3.25380       -1.13840        0.71670
F          4.17490       -1.88780        0.00800
H          0.63060        1.06880       -0.34830
H          0.81480        0.17460        1.21220
H          0.47610       -0.73120       -0.31490
H          2.77260        0.00280       -1.23900
H          3.34100        2.00050        0.53530
H          2.66850       -1.67180        1.49580
