8
160	1
O          1.14490       -0.06390        0.42600
C          2.45450        0.03040        0.10460
O          3.08160        1.02130        0.44330
C          3.15470       -1.05990       -0.66120
F          2.29240       -2.09970       -0.95880
F          3.65380       -0.54270       -1.84230
F          4.20200       -1.55180        0.09550
H          0.60730       -0.82880        0.17970
