13
4360	2
N          1.08730       -0.06510        0.13050
C          2.49680       -0.02590        0.06330
C          3.27240        1.11720        0.03990
C          4.57020        0.65430       -0.02870
N          4.53470       -0.69120       -0.04520
N          5.65670       -1.53200       -0.12000
N          3.28240       -1.11800        0.00930
H          0.54670        0.81090        0.17280
H          0.59240       -0.96810        0.13500
H          2.93690        2.14510        0.06690
H          5.47240        1.25030       -0.06560
H          6.24420       -1.35970        0.72730
H          5.33770       -2.52690       -0.10820
