19
2905	1
C          2.46910        1.48840       -0.78370
C          2.95740        0.28400        0.01880
C          2.74170        0.46050        1.51250
C          1.31430        0.59230        2.00840
C          3.82580        0.47240        2.33200
C          3.78790        0.62740        3.81070
C          4.92150        0.62290        4.51800
H          2.66620        1.31710       -1.86300
H          3.00890        2.40540       -0.46470
H          1.37760        1.64000       -0.65730
H          4.03500        0.14300       -0.21790
H          2.41980       -0.62730       -0.32000
H          0.74030       -0.30500        1.69610
H          0.83970        1.49020        1.56440
H          1.19790        0.68470        3.09960
H          4.80940        0.36230        1.88110
H          2.86140        0.74780        4.35270
H          5.88550        0.50620        4.03160
H          4.88770        0.73700        5.59680
