13
4677	1
C          1.02360       -0.06250        0.15240
C          2.51200       -0.03600        0.04480
C          3.33080        1.07820       -0.02230
N          4.61290        0.66880       -0.11280
N          4.61350       -0.65460       -0.10240
O          5.73380       -1.41090       -0.18260
C          3.35770       -1.12170       -0.00920
H          0.61790        0.97090        0.17460
H          0.72730       -0.58660        1.08490
H          0.59700       -0.59890       -0.72070
H          3.01850        2.11390       -0.00720
H          6.02970       -1.52920        0.75620
H          3.08400       -2.16850        0.01680
