17
2744	1
C          0.84020        0.45700       -0.92250
C          1.70020        0.14080        0.26560
C          2.75450        1.13900        0.69990
C          2.45730        1.72780        2.08500
N          3.47160        2.71490        2.44060
N          1.53390       -0.98350        0.87790
O          2.28050       -1.33140        1.90470
H          0.26820        1.38850       -0.72960
H          0.12160       -0.36610       -1.12550
H          1.47950        0.59950       -1.81880
H          2.78060        1.98330       -0.02410
H          3.75200        0.64830        0.68830
H          2.43110        0.93520        2.86310
H          1.46300        2.22550        2.06000
H          4.39560        2.23620        2.53690
H          3.22640        3.12230        3.37100
H          2.13360       -2.17920        2.34420
