13
3892	1
C          0.83060       -0.12680       -0.04170
C          2.32980       -0.22160       -0.09240
F          2.90170       -1.44040        0.10760
C          3.10230        0.85680       -0.32760
F          2.52870        2.07650       -0.52770
C          4.57950        0.73480       -0.37230
C          5.35850        1.79530       -0.60450
H          0.47860       -0.46230        0.95580
H          0.39770       -0.79130       -0.81790
H          0.45660        0.90370       -0.21580
H          5.04930       -0.23200       -0.21440
H          4.93380        2.78100       -0.76800
H          6.43700        1.67800       -0.63190
