12
5736	1
O          1.18480       -0.04650        0.62940
N          2.44950       -0.03180        0.18280
C          3.24750       -1.22150       -0.03130
C          4.54900       -0.61650       -0.51580
C          4.45370        0.76030       -0.55390
C          3.12880        1.08550       -0.10950
O          2.66740        2.21100       -0.00490
H          0.62640       -0.13720       -0.18500
H          2.79090       -1.87100       -0.80760
H          3.39100       -1.77930        0.91800
H          5.43330       -1.17400       -0.79420
H          5.23370        1.44460       -0.86030
