15
2273	2
C          1.65300       -0.09700        0.44240
O          2.30350        0.59220       -0.59580
N          2.87730       -0.34280       -1.37670
C          4.28150       -0.60890       -1.28750
N          5.00790        0.03620       -0.44290
C          4.94960       -1.62200       -2.15030
C          4.32120       -2.37270       -3.06450
H          1.17960        0.64660        1.11580
H          2.37810       -0.68150        1.05140
H          0.84370       -0.74760        0.04270
H          2.29320       -0.82470       -2.07210
H          4.61380        0.75130        0.18500
H          6.02030       -1.76320       -2.02910
H          3.25940       -2.30260       -3.25250
H          4.89180       -3.08790       -3.64830
