16
1402	1
C          1.03500       -0.08110       -0.14930
C          2.57610       -0.07760       -0.04230
F          2.91450       -0.06970        1.30010
C          3.14730       -1.30230       -0.78680
C          3.24910       -0.77350       -2.17280
C          3.24640        0.59800       -2.18020
C          3.14250        1.14130       -0.80000
H          0.62030       -0.97740        0.35940
H          0.69280       -0.08740       -1.20670
H          0.61690        0.81910        0.34980
H          2.49530       -2.19510       -0.67250
H          4.18280       -1.54330       -0.46240
H          3.42870       -1.37360       -3.05480
H          3.42370        1.18930       -3.06860
H          2.48710        2.03280       -0.69530
H          4.17700        1.38970       -0.47830
