14
340	1
C          0.98240       -0.11690        0.16710
C          2.49230       -0.15430       -0.10060
N          2.86740       -1.43020       -0.71980
C          2.90080        1.04610       -0.93940
F          2.63920        2.28950       -0.45400
C          3.51340        0.94290       -2.12820
H          0.68900       -0.96650        0.81960
H          0.41560       -0.18540       -0.78640
H          0.70310        0.82700        0.68230
H          3.02320       -0.07110        0.87300
H          2.30480       -1.58970       -1.58790
H          2.66410       -2.21250       -0.05580
H          3.75720       -0.01580       -2.57090
H          3.78110        1.84160       -2.67440
