13
910	1
N          0.59670        0.65530       -1.07760
N          1.96710        0.54310       -1.06920
C          2.70690        1.42740       -0.49740
C          4.20270        1.27980       -0.50110
C          4.89650        2.43290       -1.17650
O          6.24430        2.44290       -1.24350
O          4.25620        3.35460       -1.66370
H          0.02940       -0.06700       -1.54260
H          0.12460        1.45310       -0.62520
H          2.25890        2.28680       -0.00390
H          4.49080        0.34200       -1.02420
H          4.55220        1.21810        0.55080
H          6.71890        3.16970       -1.67160
