10
6170	2
O          0.92800        0.11820       -0.03090
C          2.27350        0.10160       -0.02570
C          3.12350        1.18630       -0.02200
N          4.39510        0.73010       -0.01710
N          4.36070       -0.59650       -0.01770
H          5.20640       -1.20840       -0.01450
C          3.08040       -1.00470       -0.02300
F          2.68310       -2.30060       -0.02500
H          0.44230        0.95480       -0.03210
H          2.84480        2.23160       -0.02270
