14
671	1
C          0.76280       -0.05040       -0.71380
C          2.22930       -0.04070       -0.28170
C          2.41470       -0.19200        1.20580
O          1.44650       -0.30770        1.94700
O          3.67450       -0.19840        1.71210
C          3.94940       -0.33470        3.05670
H          0.69940        0.06390       -1.81650
H          0.21450        0.79060       -0.23800
H          0.28260       -1.01090       -0.42870
H          2.68970        0.91870       -0.60080
H          2.75750       -0.87460       -0.79130
H          5.04800       -0.30780        3.20780
H          3.56120       -1.30630        3.43090
H          3.48960        0.49940        3.62900
