12
353	1
C          0.98030        0.14290       -0.13660
C          2.48130        0.06650       -0.03870
C          3.12580        0.70920        0.95100
C          3.23040       -0.74590       -1.07020
F          2.98170       -0.23500       -2.33080
F          4.59820       -0.74490       -0.85300
H          0.53740        0.76230        0.67280
H          0.55260       -0.87910       -0.06670
H          0.69250        0.58860       -1.11160
H          2.57610        1.28860        1.68660
H          4.20600        0.66790        1.04250
H          2.87320       -1.79630       -1.03250
