10
388	2
N          3.10910       -0.79250        1.00330
C          2.42400       -0.09820        0.05870
O          1.21010       -0.22110       -0.00170
C          3.09240        0.81370       -0.91470
F          2.31300        1.46280       -1.82130
C          4.41480        1.03200       -0.94970
H          2.60100       -1.41050        1.65360
H          4.12910       -0.72840        1.10070
H          5.10790        0.55950       -0.26820
H          4.82330        1.71180       -1.69060
