12
2306	2
C          0.93690       -0.14640        0.21600
C          2.23910        0.02900       -0.05960
N          3.00610        1.14650        0.21700
C          2.66080        2.31030        0.82760
N          3.43390        3.31400        1.04470
C          2.94210       -1.00840       -0.69710
N          3.51770       -1.85760       -1.21900
H          0.33700        0.61220        0.70500
H          0.42180       -1.06870       -0.04370
H          3.97290        1.07630       -0.08610
H          1.61090        2.36790        1.15760
H          4.37640        3.13570        0.69250
