15
4422	1
C          1.19050       -0.04310        0.29160
N          2.58490       -0.03710       -0.16800
C          2.92970       -1.23340       -0.96980
C          3.60770       -0.70370       -2.17090
C          3.59650        0.60160       -2.17620
F          4.12490        1.35600       -3.17450
C          2.91320        1.15070       -0.98690
H          1.00570       -0.93800        0.92350
H          0.48630       -0.05440       -0.56980
H          0.99340        0.85850        0.91000
H          2.03810       -1.81950       -1.28770
H          3.62120       -1.88110       -0.39120
H          4.03770       -1.30970       -2.95770
H          2.01440        1.71940       -1.31590
H          3.59770        1.81590       -0.42000
