10
25	1
N          0.96630       -0.07850       -0.03280
C          2.42440       -0.09550        0.02010
C          2.94340        1.08530        0.83660
F          4.32300        1.03140        0.90980
F          2.57050        2.27870        0.24390
H          0.64370       -0.90280       -0.58840
H          0.64670        0.78330       -0.53120
H          2.84350       -0.05630       -1.01010
H          2.75890       -1.04020        0.50210
H          2.52590        1.04200        1.86480
