19
1959	1
C          0.37640       -0.94290        0.18530
C          1.85040       -0.74880       -0.17800
C          2.21020        0.56680       -0.85730
C          1.29740        1.52020       -1.13390
C          3.65810        0.79460       -1.22280
O          4.06570       -0.21050       -2.12620
C          5.44070       -0.06520       -2.39910
H          0.24350       -1.93200        0.67230
H         -0.25570       -0.91720       -0.72780
H          0.04470       -0.15750        0.89730
H          2.14640       -1.58240       -0.85030
H          2.44530       -0.82880        0.75710
H          0.24900        1.40360       -0.88930
H          1.59330        2.44600       -1.61760
H          4.24740        0.74550       -0.27860
H          3.79120        1.79980       -1.68630
H          5.73790       -0.85350       -3.12080
H          6.05320       -0.21530       -1.48240
H          5.65810        0.91430       -2.88030
