13
795	2
C          0.90320       -0.05990       -0.13760
C          2.38400        0.16990       -0.07390
N          2.88400        1.12970        0.87180
N          4.23280        1.43630        1.02060
N          3.14610       -0.50590       -0.87330
O          4.45500       -0.38240       -0.89950
H          0.53990       -0.41400        0.84960
H          0.64740       -0.82120       -0.90570
H          0.39150        0.89090       -0.39500
H          2.20650        1.62150        1.47280
H          4.59760        1.82370        0.12110
H          4.75060        0.57670        1.31200
H          4.97840       -0.91240       -1.51500
