16
2055	1
C          1.72560        1.29800       -0.62740
C          2.53280        0.21260        0.07380
N          3.11030       -0.68960       -0.90810
C          4.45000       -0.88640       -1.03850
O          5.24050       -0.29250       -0.31530
O          4.90380       -1.75080       -1.98300
C          6.24190       -2.01390       -2.18980
H          1.27170        1.97400        0.12760
H          0.91370        0.84240       -1.23350
H          2.38650        1.89390       -1.29230
H          1.86310       -0.36590        0.74550
H          3.30900        0.70060        0.70170
H          2.47220       -1.20630       -1.53250
H          6.34480       -2.75000       -3.01320
H          6.69540       -2.44140       -1.26990
H          6.77650       -1.08240       -2.47470
