17
4203	1
C          0.98470       -0.07830       -0.05210
C          2.51400       -0.05040        0.00580
C          3.06150        1.07290        0.88090
C          4.47600        0.58430        1.08200
F          5.17790        0.67110       -0.11220
C          4.20040       -0.87500        1.41120
N          3.10420       -1.29800        0.52430
H          0.60340        0.87890       -0.46660
H          0.55820       -0.22570        0.96300
H          0.64840       -0.90930       -0.70760
H          2.90340        0.09120       -1.02820
H          2.54430        1.06570        1.86880
H          2.97220        2.08680        0.43580
H          5.04580        1.12330        1.86850
H          3.84500       -0.92560        2.46770
H          5.09880       -1.52040        1.31680
H          2.41860       -1.85070        1.09010
