14
4343	1
F          1.06570        0.15770       -0.45320
C          2.37770        0.03700       -0.03070
C          2.58700       -1.28800        0.75290
C          3.00380       -0.82380        2.11370
C          3.29630       -1.63280        3.13560
C          3.04780        0.61310        2.17270
C          2.69330        1.11880        0.95800
H          3.06670        0.10290       -0.89950
H          3.39420       -1.89950        0.29480
H          1.64560       -1.87530        0.82010
H          3.24050       -2.71000        3.01450
H          3.59230       -1.22250        4.09630
H          3.31670        1.21060        3.03440
H          2.64760        2.17790        0.74160
