16
3400	1
C          0.94670        0.14950       -0.15500
N          2.40200        0.11660       -0.03110
C          3.13260       -0.98450       -0.61450
C          2.53580       -2.01830       -1.23040
C          3.10620        1.18120        0.66060
N          2.50560        2.45890        0.85100
N          4.29890        1.00590        1.12170
H          0.51410       -0.76580        0.30170
H          0.65730        0.20370       -1.22590
H          0.46750        0.98530        0.38220
H          4.21420       -0.99980       -0.59130
H          1.46000       -2.10050       -1.32350
H          3.14440       -2.80920       -1.65730
H          1.61110        2.71840        0.41850
H          3.02030        3.19170        1.36130
H          4.81650        0.12160        1.06230
