11
819	2
C          0.93580       -0.03530       -0.22710
C          2.42140        0.03420       -0.01890
C          3.19820        1.14560       -0.62460
O          2.63680        2.00180       -1.28970
N          2.99910       -0.87850        0.68660
O          4.29840       -0.86770        0.90190
H          0.45770        0.88000        0.18050
H          0.50250       -0.92030        0.28680
H          0.71330       -0.11210       -1.31210
H          4.27210        1.20910       -0.48280
H          4.70590       -1.56380        1.43430
