14
669	1
C          1.08600        0.14720       -1.09530
O          2.42530        0.20920       -0.76440
C          3.05980        1.28360       -0.21160
C          2.41250        2.43090        0.07720
C          4.53250        1.16080        0.07940
O          5.23760        0.92290       -1.10830
H          0.86580       -0.85150       -1.52460
H          0.84100        0.91910       -1.85570
H          0.45840        0.28710       -0.18930
H          1.35330        2.55240       -0.11860
H          2.94230        3.27020        0.51750
H          4.70500        0.33640        0.80810
H          4.94180        2.08290        0.54560
H          5.16890       -0.05020       -1.29400
