15
1051	1
C          0.85560        0.12880        0.04720
C          2.36090       -0.13710       -0.03880
O          3.06650        1.01390        0.34150
C          2.75760       -1.28910        0.85080
C          3.35820       -2.39460        0.38450
C          3.72220       -3.45180        1.28720
C          4.02350       -4.33210        2.05050
H          0.58670        0.98610       -0.59740
H          0.56100        0.39040        1.08130
H          0.26810       -0.75290       -0.27560
H          2.61540       -0.35510       -1.09720
H          2.89520        1.16420        1.30960
H          2.55120       -1.19060        1.91150
H          3.58410       -2.51650       -0.66640
H          4.30690       -5.13120        2.68020
