14
1700	1
O          1.12980        0.00500       -0.06210
C          2.52530       -0.03700        0.01490
C          3.24240       -0.48230       -1.25020
C          3.08340        1.00540       -0.94790
C          4.43140        1.59640       -0.62410
C          5.43450        1.58010       -1.50790
H          0.83530       -0.93160        0.07460
H          2.99020        0.16500        1.00430
H          2.47730       -0.98930       -1.87710
H          4.10840       -1.06330       -0.86590
H          2.51170        1.41230       -1.80980
H          4.58450        2.05960        0.34580
H          5.30470        1.13160       -2.48820
H          6.39220        2.02010       -1.24950
