13
4543	1
C          0.93230        0.07640        0.01480
C          2.42300        0.07610        0.01040
N          3.18050        1.19680        0.00700
C          4.44880        0.74300        0.00370
C          4.40820       -0.62990        0.00520
N          5.51700       -1.50320        0.00280
O          3.15860       -1.01390        0.00930
H          0.54680        1.11770        0.01490
H          0.56470       -0.44700        0.92160
H          0.55930       -0.44880       -0.88880
H          5.32940        1.37160        0.00050
H          6.47580       -1.12650       -0.00040
H          5.37070       -2.52260        0.00430
