16
2545	1
C          0.45440        0.49910       -1.37030
N          1.88380        0.46440       -1.56400
C          2.69040        0.19270       -0.59800
N          4.11540        0.19120       -0.78630
C          4.97430        0.09120        0.37420
N          4.71820        0.35930       -2.02350
C          4.21020       -0.04420       -3.13770
H         -0.03750        0.75180       -2.33200
H          0.18910        1.27190       -0.61720
H          0.09050       -0.49430       -1.03090
H          2.28640        0.01080        0.39630
H          4.39300       -0.01000        1.31580
H          5.60530        1.00170        0.44900
H          5.63190       -0.79760        0.27230
H          4.74800        0.13270       -4.06230
H          3.28760       -0.60900       -3.18030
