14
169	1
C          2.09730        1.50150       -0.43330
C          2.74820        0.15700       -0.31050
O          2.84550       -0.56210       -1.29400
C          3.27360       -0.31400        1.01710
C          4.75200       -0.58210        0.92780
C          5.63140        0.06930        1.69510
H          1.76730        1.68490       -1.47830
H          2.81960        2.29260       -0.14220
H          1.21210        1.55000        0.23480
H          2.75230       -1.25170        1.30360
H          3.05780        0.44950        1.79720
H          5.11310       -1.32540        0.22270
H          5.30450        0.81780        2.41040
H          6.69100       -0.14760        1.60720
