11
1821	1
F          2.36740       -0.38730        0.93510
C          2.05390       -0.09360       -0.37930
C          2.72860        1.22930       -0.77500
C          2.38250        1.71580       -2.16020
O          1.61470        1.09670       -2.88080
C          2.51390       -1.20410       -1.22530
N          2.88030       -2.07780       -1.89000
H          0.95030        0.00300       -0.46350
H          3.83180        1.11350       -0.69920
H          2.41270        2.01570       -0.05690
H          2.81750        2.64270       -2.51870
