13
1419	1
C          0.94020       -0.16060        0.06920
C          2.43370       -0.28260        0.14120
C          3.20820       -0.05710       -0.92970
C          4.67760       -0.18260       -0.83790
C          5.45300        0.04110       -1.90210
F          6.80190       -0.07960       -1.79660
H          0.60140        0.61030        0.79190
H          0.48080       -1.13450        0.33730
H          0.59310        0.12800       -0.94620
H          2.88470       -0.56100        1.09000
H          2.75490        0.22140       -1.87810
H          5.13890       -0.46040        0.10610
H          5.01860        0.32010       -2.85770
