18
5059	1
C          0.86780        0.09290        0.13650
C          2.39440        0.04510       -0.05430
C          2.92520       -1.36400       -0.39870
N          2.56820       -1.74360       -1.76960
C          3.06910       -0.72650       -2.69880
C          2.51520        0.65590       -2.32580
O          2.85140        1.01180       -0.99340
H          0.56850       -0.60950        0.94320
H          0.31090       -0.18820       -0.77840
H          0.56170        1.11790        0.43450
H          2.82790        0.31240        0.93400
H          2.54070       -2.11660        0.32310
H          4.03480       -1.35900       -0.30980
H          1.52940       -1.82840       -1.86230
H          2.77180       -0.98490       -3.73780
H          4.18080       -0.70290       -2.65760
H          1.41770        0.70570       -2.48360
H          2.96080        1.40530       -3.01310
