16
5041	1
F          0.88980        0.01990        0.14890
C          2.27550        0.01010        0.10630
C          2.76980       -1.38070       -0.29900
C          2.32720       -1.67340       -1.74090
O          2.84990       -0.70370       -2.63440
C          2.32500        0.57780       -2.32760
C          2.76750        1.02700       -0.92650
H          2.65450        0.27380        1.11680
H          2.37080       -2.14950        0.39690
H          3.88100       -1.40630       -0.25310
H          1.21770       -1.72890       -1.82370
H          2.71880       -2.66990       -2.03480
H          1.21550        0.58390       -2.42650
H          2.71500        1.30470       -3.07080
H          2.36680        2.03690       -0.69430
H          3.87860        1.07370       -0.89950
