15
328	1
C          0.99320       -0.10030        0.00800
C          2.51850       -0.10590        0.04450
C          3.21310        0.97490        0.87600
C          4.25670       -0.08720        1.23110
F          4.74100       -0.06060        2.52680
F          5.27180       -0.11230        0.28540
C          3.20410       -1.15490        0.92290
H          0.63800        0.79300       -0.54710
H          0.57400       -0.07580        1.03630
H          0.63040       -1.01410       -0.50730
H          2.96990       -0.13040       -0.97630
H          2.60340        1.18640        1.78660
H          3.54440        1.90800        0.37310
H          2.59280       -1.32090        1.84190
H          3.52740       -2.11200        0.46170
