13
986	1
O          4.16500       -0.13500        0.92340
C          2.92250        0.05130        0.30120
C          3.01660       -0.05940       -1.20090
C          4.17060       -0.30890       -1.84990
C          4.24680       -0.41650       -3.35000
F          3.01500       -0.23790       -3.95680
F          5.12460        0.53730       -3.82910
H          4.00120       -0.04470        1.89810
H          2.53220        1.06350        0.54610
H          2.20850       -0.72330        0.65760
H          2.09800        0.07190       -1.76430
H          5.09310       -0.44150       -1.29370
H          4.62960       -1.42310       -3.61780
