14
5252	1
O          1.03390        0.06070       -0.70190
N          2.27150        0.03650       -0.18610
C          2.94850        1.27390        0.15780
C          4.37930        1.17230       -0.34370
N          4.94520       -0.03110        0.23660
N          4.22910       -1.21280        0.20910
C          2.95810       -1.20520       -0.02840
H          0.42900        0.00970        0.08220
H          2.98970        1.36450        1.26560
H          2.40850        2.15530       -0.25010
H          4.98840        2.06370       -0.08140
H          4.35180        1.06610       -1.45010
H          5.85810        0.00230        0.71280
H          2.42270       -2.14300       -0.13330
