11
5806	2
O          0.96020        0.06930       -0.16490
C          2.32660        0.04170        0.13840
C          3.01890       -1.15790       -0.49620
N          3.89180       -0.80960       -1.36630
N          3.94320        0.54240       -1.47300
C          3.06490        1.09600       -0.63650
O          2.90140        2.30140       -0.53210
H          0.54940       -0.67920        0.34130
H          2.50990        0.12780        1.23200
H          2.81410       -2.19240       -0.25570
H          4.57150        1.04890       -2.11360
