17
166	1
C          1.04400        0.00930        0.09230
C          2.57290       -0.06000       -0.02100
C          3.03100       -1.51950        0.12660
C          3.02180        0.56620       -1.36270
C          4.54230        0.64770       -1.53420
F          4.83430        1.26020       -2.73910
F          5.10120        1.38930       -0.50870
H          0.71080       -0.40230        1.06900
H          0.56170       -0.57170       -0.72340
H          0.70060        1.06410        0.03030
H          3.00190        0.53250        0.81710
H          2.62400       -2.14370       -0.69770
H          2.67680       -1.93340        1.09500
H          4.13680       -1.59530        0.12610
H          2.62520        1.60400       -1.41910
H          2.59310       -0.01330       -2.20990
H          4.99780       -0.36270       -1.54530
