17
2956	1
C          0.98090       -0.01470       -0.06370
C          2.48550        0.14840       -0.00810
C          3.07470        1.22690        0.85460
C          2.32290        2.06540        1.58150
C          3.24830       -0.69910       -0.74760
C          4.75740       -0.70150       -0.83180
O          5.24920       -1.94950       -0.43010
H          0.51700        0.91950       -0.44400
H          0.59060       -0.23420        0.95230
H          0.66310       -0.84360       -0.73200
H          4.14340        1.36280        0.91940
H          1.24040        2.01280        1.58720
H          2.80220        2.82680        2.18860
H          2.74870       -1.45750       -1.34490
H          5.27910        0.09370       -0.26950
H          5.03830       -0.54360       -1.89370
H          5.18850       -1.97080        0.56090
