16
1360	1
C          1.02210        0.36890        0.06350
C          2.49000       -0.00680        0.19370
O          3.06190       -0.07560       -1.06280
C          4.36310       -0.38630       -1.32410
C          5.26020       -0.66870       -0.35890
C          6.68390       -1.00600       -0.69150
H          0.55860        0.42520        1.07100
H          0.48520       -0.39550       -0.53760
H          0.92460        1.35750       -0.43350
H          2.56530       -0.99440        0.69950
H          3.00660        0.76600        0.80400
H          4.67980       -0.40390       -2.36240
H          4.97380       -0.65920        0.68710
H          6.87390       -0.98840       -1.78620
H          6.91800       -2.02060       -0.30780
H          7.35690       -0.27080       -0.20360
