15
1326	1
C          1.00940       -0.00640        0.25840
C          2.50870        0.08860       -0.03230
O          2.82400        0.01450       -1.39630
C          3.31090        1.17700        0.75200
C          4.13160        0.08540        1.50980
C          3.32050       -0.84580        0.73320
O          3.33820       -2.06660        0.71370
H          0.48430        0.85280       -0.20880
H          0.81480        0.01000        1.35260
H          0.60190       -0.94940       -0.16360
H          2.58220        0.89470       -1.78560
H          2.67410        1.75390        1.45930
H          3.96000        1.79600        0.09340
H          3.90180       -0.02180        2.59130
H          5.19710       -0.00440        1.20860
