8
1125	1
F          0.93500       -0.08870        0.04480
C          2.28980       -0.09190        0.03890
N          3.04300        1.02520        0.03340
C          4.30920        0.56850        0.02880
C          4.27990       -0.80820        0.03170
O          3.02370       -1.18030        0.03790
H          5.18930        1.19730        0.02370
H          5.12850       -1.47910        0.02940
