14
6195	1
C          0.93490        0.00340       -0.06570
C          2.42660       -0.05870       -0.06990
O          3.21120        0.99610       -0.07510
C          4.46830        0.59750       -0.07770
C          4.51510       -0.78470       -0.07390
C          3.20410       -1.19610       -0.06900
N          2.75010       -2.53500       -0.06390
H          0.59890        1.06140       -0.06770
H          0.54210       -0.49910        0.84270
H          0.53680       -0.50420       -0.96900
H          5.32070        1.26340       -0.08200
H          5.39910       -1.40870       -0.07470
H          3.42720       -3.31130       -0.06370
H          1.74170       -2.74490       -0.06040
