16
2018	2
C          2.60460        1.59560       -0.81430
C          2.87650        0.46350        0.17740
N          3.53900       -0.66300       -0.45850
C          4.81070       -0.58690       -0.95270
O          5.44410        0.45510       -0.86400
C          5.47620       -1.77640       -1.60550
O          4.64080       -2.90200       -1.65520
H          2.06380        2.41630       -0.29780
H          1.97370        1.22370       -1.64940
H          3.54440        2.01120       -1.22960
H          1.89450        0.12550        0.57480
H          3.48600        0.83020        1.03160
H          3.02250       -1.55290       -0.50990
H          6.42130       -2.02260       -1.06940
H          5.75530       -1.50610       -2.64550
H          4.72010       -3.35570       -0.77540
