12
1576	1
O          2.45690        1.21240        0.02170
C          2.13000        0.04200        0.13230
C          2.97820       -1.03420       -0.48040
C          4.29350       -1.29990        0.20960
O          3.97960       -2.66190        0.39300
C          2.66310       -2.45110       -0.06500
H          1.22050       -0.21120        0.66750
H          3.11780       -0.97250       -1.58260
H          4.38100       -0.81630        1.20950
H          5.16920       -1.15430       -0.45990
H          1.96890       -2.52540        0.80290
H          2.40720       -3.10620       -0.92610
