19
1707	1
C          1.40000        0.15540       -0.31510
C          2.63960       -0.63800        0.10940
C          2.66780       -0.80350        1.64240
C          3.93520       -1.51610        2.13170
O          3.91610       -1.63440        3.52810
C          2.62250       -1.98490       -0.57770
C          3.59480       -2.35760       -1.41580
H          1.40390        1.15860        0.16220
H          0.46970       -0.37660       -0.01950
H          1.39630        0.29680       -1.41730
H          3.53650       -0.05320       -0.19720
H          1.77300       -1.37280        1.97920
H          2.63690        0.20420        2.11240
H          4.84830       -0.96800        1.80420
H          3.99360       -2.53740        1.70050
H          4.18230       -0.75020        3.89290
H          1.79950       -2.66790       -0.38530
H          4.43170       -1.70000       -1.62980
H          3.55420       -3.33120       -1.89310
