16
3119	1
C          1.54780       -0.39940        0.55160
C          3.05320       -0.14630        0.49310
F          3.71080       -1.36500        0.52350
C          3.44200        0.62390       -0.78180
F          2.77530        1.83820       -0.82350
C          4.95570        0.87200       -0.87160
N          5.43210        1.67360        0.25280
H          1.29890       -0.95800        1.47850
H          1.22200       -0.99990       -0.32420
H          0.99120        0.56160        0.56120
H          3.34680        0.43960        1.39090
H          3.13690        0.02770       -1.66960
H          5.18450        1.39770       -1.82530
H          5.49180       -0.10210       -0.88060
H          4.99490        2.62280        0.21040
H          6.46580        1.79780        0.15690
