16
4881	1
C          1.01800       -0.14610        0.40720
C          2.45450        0.04130       -0.08150
C          3.22120        1.13020        0.64490
C          4.06050       -0.04300        1.11510
C          5.51310       -0.00670        0.63820
F          6.13810       -1.19610        0.96390
O          3.29810       -0.98080        0.39330
H          0.40840        0.73790        0.12500
H          0.98870       -0.27100        1.51110
H          0.58040       -1.05000       -0.06580
H          2.53580        0.13500       -1.18790
H          2.66470        1.60060        1.48540
H          3.74450        1.80080       -0.07200
H          3.95790       -0.21980        2.20970
H          6.04730        0.82980        1.13580
H          5.56270        0.13650       -0.46270
