12
246	2
N          2.59300        0.81450       -1.39720
C          2.39430        0.32300       -0.15140
O          1.57690        0.85260        0.58650
C          3.16330       -0.88350        0.32870
C          4.65310       -0.66110        0.38220
O          5.45500       -1.66880        0.78560
O          5.14080        0.41730        0.07300
H          2.06300        1.63590       -1.72430
H          3.27250        0.37170       -2.03300
H          2.94830       -1.73420       -0.35220
H          2.82250       -1.15920        1.35030
H          6.41510       -1.55640        0.83290
