18
4320	1
C          1.02110        0.08030        0.08740
C          2.54940        0.05010        0.01450
C          3.16280       -1.20230        0.66420
C          3.37120       -0.84470        2.14960
N          4.51640       -1.54460        2.73140
C          3.58580        0.62490        2.06390
C          3.12230        1.12610        0.87300
H          0.60160       -0.76610       -0.49640
H          0.64100        1.02930       -0.34740
H          0.66590       -0.00130        1.13730
H          2.87390        0.11380       -1.04750
H          4.18460       -1.26450        0.22020
H          2.67110       -2.17510        0.45010
H          2.46040       -1.01810        2.76290
H          5.38850       -1.34280        2.18920
H          4.33650       -2.57430        2.70330
H          3.94300        1.24910        2.87250
H          3.08280        2.18370        0.64790
