11
489	1
O          2.76770       -1.22490        0.24710
C          2.34910        0.09790        0.04680
C          2.89780        0.99870        1.15500
F          2.45250        2.29270        0.95480
F          2.44490        0.55470        2.38450
C          4.34180        0.99870        1.15500
C          5.53200        0.99870        1.15500
H          2.37460       -1.75310       -0.49540
H          1.23730        0.14360        0.07420
H          2.71000        0.46510       -0.94090
H          6.59030        0.99850        1.15480
