12
303	1
N          1.02780       -0.24880        0.19740
C          2.40090       -0.17340       -0.28720
C          3.12450       -1.48980       -0.00490
C          4.58470       -1.40980        0.22270
O          3.65820       -1.54030        1.28770
H          0.54790        0.65340       -0.02380
H          1.03600       -0.35920        1.23730
H          2.91940        0.69100        0.18730
H          2.38890       -0.01170       -1.38600
H          2.72190       -2.46850       -0.34030
H          5.07140       -0.41710        0.32340
H          5.17170       -2.35030        0.17720
