10
4688	1
N          0.87890        0.06270       -0.28560
N          2.27560        0.02640       -0.14860
C          3.10180        1.08180       -0.16530
C          4.36860        0.57440       -0.00150
F          5.52640        1.27640        0.04500
N          4.27710       -0.76740        0.10840
N          2.99000       -1.07630        0.01490
H          0.49210        0.61360        0.51440
H          0.50880       -0.91320       -0.21930
H          2.80530        2.11560       -0.28530
