15
16	1
C          2.78830        1.17810        0.82580
C          2.38250        0.00290       -0.06150
C          2.95560       -1.33060        0.45600
C          2.48840       -2.50910       -0.40440
O          4.36040       -1.29340        0.50760
H          2.34590        2.11500        0.42650
H          3.89300        1.29040        0.84470
H          2.41900        1.02410        1.86210
H          2.73860        0.19140       -1.09790
H          1.27220       -0.05640       -0.07820
H          2.57760       -1.49840        1.48820
H          2.84200       -2.39370       -1.45130
H          1.37910       -2.56880       -0.40480
H          2.89220       -3.45850        0.00690
H          4.69210       -1.13720       -0.41560
