13
2184	2
C          1.69740       -1.27670       -0.63880
O          2.80370       -0.45720       -0.72160
C          3.15830        0.41900        0.25410
O          2.48730        0.51130        1.27530
N          4.26370        1.19060        0.08360
C          4.69180        2.13040        1.06710
N          5.74080        2.84580        0.87330
H          1.63170       -1.89300       -1.55890
H          0.77330       -0.66580       -0.55170
H          1.78520       -1.95290        0.23850
H          4.80830        1.09090       -0.78670
H          4.13590        2.25310        1.99180
H          6.29510        2.75910        0.00880
