19
4050	1
C          2.61130       -1.18770       -1.21940
C          2.31740       -0.16150       -0.12600
C          3.00230        1.18970       -0.38050
C          4.53750        1.09830       -0.38890
C          5.28550        0.65030        0.86750
C          5.22340        0.95650       -1.69280
O          5.13560        2.20050       -1.00340
H          2.06500       -2.12900       -0.99990
H          3.69610       -1.41830       -1.26260
H          2.27770       -0.80430       -2.20710
H          2.63270       -0.56920        0.85800
H          1.21910        0.00520       -0.09000
H          2.70380        1.89270        0.42660
H          2.62950        1.60980       -1.34120
H          5.02790       -0.40230        1.10460
H          4.99540        1.29630        1.72220
H          6.38650        0.71860        0.73290
H          4.63360        1.05440       -2.62820
H          6.29440        0.66510       -1.71370
