14
2625	1
C          1.55650        0.80570       -0.18940
O          2.87600        0.45570       -0.38640
C          3.75420        1.22160       -1.08280
O          3.39750        2.28370       -1.57730
C          5.14890        0.75420       -1.23570
C          6.06900        1.46070       -1.91110
N          7.39720        0.98250       -2.03790
H          1.05600        0.01590        0.40750
H          1.03460        0.90000       -1.16590
H          1.49310        1.76650        0.36520
H          5.42790       -0.19310       -0.78290
H          5.80610        2.40970       -2.36970
H          7.68100        0.08610       -1.61540
H          8.09210        1.53560       -2.55910
