14
4117	1
N          2.75990        0.77620       -1.43290
C          2.48530        0.15430       -0.13800
C          3.11090        0.90330        1.05630
F          2.83010        0.40230        2.31680
C          4.29380        1.85060        0.95630
C          2.86080        2.40040        1.00880
F          2.69590        3.02960        2.23050
H          2.19690        0.27900       -2.16040
H          3.76380        0.62520       -1.68100
H          2.85770       -0.89330       -0.14310
H          1.38550        0.12410        0.02140
H          4.79030        1.67940       -0.01770
H          4.86210        1.75540        1.90620
H          2.77070        3.01250        0.08670
