18
1327	1
C          1.34020        0.54940        0.37890
C          2.84410        0.32600        0.24870
C          3.14840       -0.91240       -0.59880
C          4.63620       -1.10000       -0.73080
C          5.24430       -2.21410       -0.29470
C          6.72680       -2.40060       -0.42700
H          1.15000        1.45170        0.99750
H          0.86070       -0.32480        0.86870
H          0.88450        0.70220       -0.62270
H          3.27780        0.19730        1.26470
H          3.30000        1.22430       -0.22280
H          2.71950       -0.78540       -1.61600
H          2.67480       -1.80300       -0.12860
H          5.21980       -0.30800       -1.19280
H          4.66360       -3.00760        0.16700
H          7.21580       -1.52850       -0.91200
H          6.92820       -3.30490       -1.03780
H          7.16880       -2.53930        0.58130
