11
5815	1
O          0.88450        0.04630       -0.15980
C          2.26840        0.03290        0.05350
C          2.90860       -1.17550       -0.56050
C          3.77330       -0.79250       -1.55920
O          3.79550        0.53510       -1.70050
C          2.94650        1.06390       -0.80210
O          2.75740        2.26560       -0.70360
H          0.50640       -0.66140        0.42460
H          2.52140        0.16230        1.12900
H          2.72620       -2.20150       -0.26960
H          4.36230       -1.47310       -2.15920
