13
125	1
C          1.03740       -0.09050       -0.01570
C          2.53890       -0.07300        0.01900
C          3.25400        0.52480        1.20880
N          3.18190       -0.57750       -0.98500
N          4.55730       -0.61800       -1.06560
H          0.59660        0.36690        0.89450
H          0.68000       -1.13910       -0.08870
H          0.68000        0.47680       -0.90060
H          2.53800        0.90560        1.96650
H          3.88700        1.37590        0.88070
H          3.88700       -0.24640        1.69590
H          5.00180       -1.03490       -1.89520
H          5.16040       -0.24340       -0.31990
