12
1127	2
N          1.14900       -1.00780        0.17450
C          2.40810       -0.49640        0.16180
O          2.89780        0.04430        1.14220
C          3.10690       -0.65870       -1.12920
C          4.35790       -0.19930       -1.26320
C          5.06090       -0.33150       -2.47360
C          5.65600       -0.44340       -3.49820
H          0.62440       -0.92460        1.03550
H          0.71330       -1.46190       -0.61410
H          2.58890       -1.14800       -1.94350
H          4.86140        0.29000       -0.43240
H          6.19250       -0.54130       -4.41330
