16
5137	2
C          1.11840        0.11180       -0.46640
C          2.54260       -0.02970        0.10190
C          3.24410       -1.31200       -0.39400
N          3.61750       -1.20880       -1.79550
C          3.76090       -0.06730       -2.38200
N          3.55940        1.14110       -1.65520
N          3.38790        1.11080       -0.26850
H          0.49860       -0.75390       -0.15000
H          1.11550        0.15530       -1.57520
H          0.64750        1.03820       -0.07490
H          2.45170       -0.08120        1.20900
H          2.58970       -2.19510       -0.23370
H          4.17590       -1.47160        0.19030
H          3.99080       -0.03140       -3.44140
H          3.53430        2.03980       -2.16010
H          2.98970        2.02310        0.05530
