17
448	1
C          1.17370       -0.17340       -0.22260
C          2.56510        0.30470        0.21280
F          3.51560       -0.51290       -0.38310
C          2.81410        1.76160       -0.22620
N          2.74060        1.90280       -1.67880
C          2.65920        0.22650        1.72400
C          3.56040       -0.53490        2.35640
H          1.07650       -0.14050       -1.32840
H          0.37950        0.46430        0.22270
H          1.01180       -1.22320        0.10420
H          3.82010        2.08850        0.12190
H          2.05460        2.42860        0.23950
H          3.50950        1.34860       -2.12050
H          2.89730        2.90750       -1.92210
H          1.96610        0.81440        2.32010
H          4.27610       -1.14040        1.81060
H          3.58380       -0.55270        3.44110
