16
1667	1
C          3.47320       -0.88360        0.40590
C          2.44720        0.06770       -0.20110
C          3.13440        1.31630       -0.77180
C          2.36330        2.62040       -0.75410
C          3.45440        2.34840        0.29480
O          4.54840        3.17120        0.01380
H          2.95950       -1.78990        0.79020
H          4.00480       -0.39180        1.24820
H          4.21400       -1.19260       -0.36220
H          1.69640        0.33170        0.57660
H          1.92040       -0.45230       -1.02900
H          3.96050        1.21520       -1.51000
H          1.30510        2.38900       -0.50640
H          2.63010        3.14770       -1.69530
H          2.94280        2.49390        1.27020
H          5.34390        2.63600        0.26580
