13
3290	1
C          2.71600       -1.67190       -0.07530
C          2.54230       -0.17990       -0.10970
O          1.84300        0.31900       -0.97880
C          3.18400        0.71320        0.92620
F          2.72920        0.36520        2.18590
C          4.71290        0.66140        0.89760
F          5.18070       -0.59300        1.24400
H          2.13900       -2.14920       -0.89600
H          2.34810       -2.06970        0.89330
H          3.78170       -1.94500       -0.20700
H          2.88120        1.76460        0.72550
H          5.11530        1.39180        1.63100
H          5.08830        0.93440       -0.11170
