20
365	1
C          2.85940        1.46930       -0.12090
C          2.45290       -0.00730       -0.04870
C          3.01920       -0.92130       -1.17860
C          2.50620       -2.35750       -0.93850
C          2.52400       -0.45460       -2.56450
C          4.56610       -0.93550       -1.17250
F          5.05510       -1.35260        0.05410
H          2.39830        2.01430        0.72970
H          2.50010        1.94170       -1.05710
H          3.95860        1.58880       -0.04090
H          1.34140       -0.05160       -0.06870
H          2.78430       -0.39840        0.93850
H          1.39510       -2.38700       -0.95750
H          2.84390       -2.74000        0.04890
H          2.88310       -3.04840       -1.72360
H          1.41330       -0.43880       -2.59940
H          2.88630       -1.14130       -3.36010
H          2.89940        0.56010       -2.80990
H          4.97760        0.07050       -1.39480
H          4.94880       -1.62480       -1.95610
