16
143	1
C          0.98400        0.03980       -0.08790
C          2.51980        0.09230       -0.00510
C          3.14460       -0.30610       -1.35390
O          2.92680        1.39980        0.33220
C          2.98130       -0.90070        1.05360
F          2.67650       -2.21750        0.89330
C          3.67660       -0.53540        2.14040
H          0.61020        0.74530       -0.86070
H          0.53760        0.32420        0.88940
H          0.63520       -0.98170       -0.35340
H          2.82020        0.39140       -2.15580
H          2.83900       -1.33460       -1.64490
H          4.25340       -0.27080       -1.28820
H          2.60920        2.01700       -0.37860
H          3.95050        0.49750        2.32570
H          3.97980       -1.28610        2.86310
