11
4712	1
C          1.09150        0.13940       -0.04040
N          2.54150        0.02520       -0.04460
N          3.38130        1.04870       -0.04700
N          4.62160        0.58400       -0.05140
C          4.49750       -0.75740       -0.05160
O          5.52730       -1.62200       -0.05600
N          3.20390       -1.11850       -0.04720
H          0.78970        1.20830       -0.03970
H          0.68200       -0.35300        0.86630
H          0.67700       -0.35310       -0.94470
H          6.44010       -1.30230       -0.05990
