10
1214	1
F          0.95940       -0.09670        0.08400
C          2.30630       -0.08290        0.05550
C          2.92790        0.44330       -1.00420
C          3.01520       -0.62210        1.14340
C          3.60420       -1.08240        2.06970
C          4.37270       -1.67120        3.25650
C          4.97310       -2.13330        4.18770
H          2.35130        0.85120       -1.82600
H          4.00990        0.47710       -1.07220
H          5.50430       -2.54370        5.01410
