14
155	2
C          3.22420       -1.36980        0.01320
N          2.92900        0.05080        0.20750
N          3.31180        0.79450       -0.91190
C          4.61920        1.01260       -1.23140
C          4.96690        1.83030       -2.43860
O          5.51500        0.55820       -0.53460
H          2.84220       -1.94350        0.88330
H          4.31480       -1.55490       -0.06930
H          2.71380       -1.74250       -0.90050
H          3.40410        0.42780        1.06070
H          2.57560        1.22040       -1.49430
H          4.55070        1.34790       -3.34760
H          6.06890        1.91660       -2.55200
H          4.53740        2.84880       -2.33560
