18
3217	1
C          1.00770       -0.07970        0.23260
C          2.52610       -0.09880        0.01410
C          3.00740       -1.45800       -0.06420
C          3.40420       -2.57820       -0.12880
N          2.91360        0.75010       -1.13340
C          4.35660        0.99410       -1.16640
C          2.44930        0.26140       -2.43120
H          0.75180       -0.56030        1.18470
H          0.46440       -0.61800       -0.55190
H          0.62870        0.94770        0.27190
H          2.95160        0.36450        0.91510
H          3.75970       -3.58080       -0.18830
H          4.70220        1.41700       -0.21640
H          4.60040        1.73260       -1.93870
H          4.93410        0.08610       -1.37260
H          1.35940        0.16900       -2.46040
H          2.88890       -0.70420       -2.70350
H          2.70840        0.97870       -3.21900
