13
1620	2
O          0.91140        2.08080       -0.08670
C          2.11080        2.10570        0.13860
N          2.87080        1.00810       -0.09780
C          4.29470        1.00340        0.17550
C          5.19020        0.59830       -0.98940
C          4.99140        2.06660       -0.67010
H          2.56110        3.01320        0.53070
H          2.42740        0.14810       -0.45550
H          4.61940        1.20940        1.21810
H          4.53690        0.10920       -1.74440
H          6.01880        0.03360       -0.51190
H          4.50270        2.48040       -1.57840
H          5.99880        2.42590       -0.37060
