18
971	1
C          0.84590        0.18930        0.09050
C          2.35920       -0.03710        0.13630
C          2.86670       -0.00290        1.58020
C          2.69350       -1.37050       -0.48920
C          3.48420       -1.45740       -1.57280
C          3.83380       -2.77200       -2.21670
F          3.25390       -3.85000       -1.56940
H          0.59200        1.17400        0.53790
H          0.30990       -0.60670        0.65160
H          0.49210        0.18450       -0.96280
H          2.84990        0.79140       -0.42240
H          2.39090       -0.80470        2.18560
H          2.63580        0.97960        2.04450
H          3.96850       -0.14620        1.59980
H          2.27770       -2.26870       -0.04110
H          3.89500       -0.55330       -2.01320
H          4.93610       -2.89930       -2.20320
H          3.48790       -2.76140       -3.27100
