15
4243	1
C          1.00110        0.05530        0.10560
C          2.52270        0.02900        0.20940
C          3.07150        1.27520        0.90260
C          4.30800        0.69570        1.41010
O          5.21320        1.34610        1.90790
C          4.27310       -0.77840        1.38370
O          2.97910       -1.11090        0.91550
H          0.67310        0.94430       -0.47400
H          0.54530        0.09220        1.11800
H          0.64480       -0.85980       -0.41290
H          2.95300       -0.03430       -0.81860
H          2.47840        1.59710        1.78630
H          3.19630        2.10230        0.17100
H          4.39200       -1.16360        2.41830
H          5.06310       -1.18720        0.71810
