10
69	2
N          1.14890       -0.23120        0.32770
C          2.38360        0.10680       -0.12030
O          2.87150       -0.50770       -1.05670
C          3.17730        1.22810        0.50730
O          2.48550        1.85220        1.55580
H          0.62970       -1.00100       -0.12010
H          0.70720        0.26670        1.11310
H          3.39620        1.99230       -0.26780
H          4.15750        0.84210        0.86970
H          2.63090        1.29540        2.36510
