8
44	2
O          1.33790       -0.07960       -0.74460
N          2.48710        0.11730       -0.08430
C          2.99040       -0.88920        0.77950
N          4.09490       -0.71850        1.41230
H          0.64070        0.32770       -0.16930
H          3.00740        0.99710       -0.22040
H          2.43830       -1.81440        0.90910
H          4.64090        0.14960        1.30920
