15
1439	1
C          1.73900       -1.28720        0.05770
C          2.64700       -0.06740        0.16120
C          3.04390        0.40910       -1.21040
C          4.33280        0.46050       -1.58790
C          4.75870        0.93290       -2.95190
F          3.68430        1.29750       -3.74570
H          1.44230       -1.61820        1.07520
H          2.27200       -2.12120       -0.44740
H          0.82090       -1.03930       -0.51710
H          3.53790       -0.33610        0.77040
H          2.10440        0.75090        0.68050
H          2.25810        0.71490       -1.89490
H          5.10960        0.15240       -0.89370
H          5.31600        0.11810       -3.45890
H          5.43080        1.80860       -2.83770
