13
261	2
C          3.16750       -0.84350        1.89200
C          3.02460       -0.23770        0.51860
O          2.19510       -0.72250       -0.23720
N          3.77530        0.82300        0.08090
C          4.74040        1.47320        0.80480
N          5.41070        2.51140        0.24950
O          5.01280        1.13660        1.94730
H          2.45690       -1.68840        2.01920
H          2.93710       -0.08700        2.67120
H          4.19460       -1.24100        2.03120
H          3.59530        1.15890       -0.87870
H          5.20420        2.81940       -0.71200
H          6.13860        3.00760        0.78520
