14
406	1
C          0.99560       -0.02520        0.01430
C          2.52030       -0.03300       -0.04940
F          3.00890       -0.06330       -1.34640
C          3.26990        1.00500        0.76110
N          4.18630       -0.01040        1.29220
C          3.26120       -1.04050        0.80620
H          0.60530        0.87040       -0.51250
H          0.64520       -0.00370        1.06790
H          0.59730       -0.93680       -0.47820
H          2.64850        1.41630        1.59210
H          3.77140        1.79020        0.15640
H          4.18540        0.01210        2.33890
H          2.63630       -1.40900        1.65470
H          3.75560       -1.85640        0.23730
