11
36	1
C          0.90140       -0.05260       -0.13070
C          2.42770        0.04140       -0.06980
O          3.01370       -1.20460       -0.34870
C          2.94010        1.08470       -1.02510
O          3.55590        2.05330       -0.60950
H          0.54230       -0.81340        0.59450
H          0.56600       -0.34350       -1.14950
H          0.44700        0.92710        0.13040
H          2.71000        0.32780        0.96720
H          2.74350       -1.46910       -1.26760
H          2.76300        0.97860       -2.09080
