15
2514	1
C          0.58370        0.16610        0.01560
C          2.07420        0.02130       -0.07580
C          2.89220        0.61420        0.81030
N          4.31010        0.47730        0.72470
O          4.86320       -0.26150       -0.25280
C          5.13780        1.11630        1.69490
N          6.41850        1.00750        1.65590
H          0.12580       -0.83780        0.13430
H          0.20370        0.62850       -0.91890
H          0.27660        0.79980        0.87510
H          2.48150       -0.58000       -0.88260
H          2.46500        1.21230        1.61170
H          5.01720        0.37300       -0.99960
H          4.68570        1.70780        2.48550
H          6.89650        0.45810        0.92750
