16
979	1
C          0.91980       -0.06140        0.11450
C          2.43490       -0.01870       -0.11290
O          3.11330       -0.66850        0.93570
C          2.78640       -0.58020       -1.47730
C          3.63570       -1.61070       -1.65660
C          3.97260       -2.15100       -3.02090
F          3.31750       -1.47600       -4.03710
H          0.67340        0.39430        1.09700
H          0.55130       -1.10970        0.10250
H          0.39480        0.51070       -0.68030
H          2.74380        1.04830       -0.10140
H          2.71990       -1.57480        1.04020
H          2.32340       -0.11050       -2.34020
H          4.10950       -2.08590       -0.80440
H          3.68870       -3.22290       -3.06510
H          5.06690       -2.06430       -3.18380
