15
1179	1
C          0.90970        0.05450        0.04210
C          2.43760       -0.04910        0.07530
C          3.23460       -0.72780       -1.02860
C          2.44440       -1.49620       -2.09460
C          3.11010        0.80230       -1.00030
F          4.33350        1.34290       -0.64790
H          0.47530       -0.82680        0.55730
H          0.48350        0.12270       -0.97750
H          0.60250        0.96920        0.59070
H          2.95670        0.03180        1.05480
H          4.13750       -1.19770       -0.58200
H          1.59680       -0.92650       -2.52320
H          2.06840       -2.44650       -1.66160
H          3.13000       -1.73860       -2.93250
H          2.61480        1.12900       -1.93970
