18
1543	1
C          0.77730        0.00840       -0.26380
C          2.29410        0.14290       -0.37880
C          2.87760        0.97060        0.77520
F          2.58980        0.35230        1.98200
C          4.39820        1.11780        0.62250
C          4.99730        1.96640        1.74800
O          6.37900        2.11190        1.56360
H          0.39150       -0.58800       -1.11730
H          0.29850        1.01050       -0.28550
H          0.50180       -0.50750        0.68040
H          2.53140        0.63720       -1.34620
H          2.74730       -0.87250       -0.37860
H          2.41280        1.98120        0.76760
H          4.62500        1.60710       -0.35030
H          4.87150        0.11140        0.63300
H          4.78930        1.51590        2.74540
H          4.53650        2.97720        1.74070
H          6.79740        1.26340        1.86490
