17
4252	1
C          1.07230        0.01400        0.09040
C          2.59720        0.03970        0.14440
C          3.16050        1.25600        0.89380
C          4.54170        0.78340        1.35380
C          4.24630       -0.67010        1.47660
C          5.03720       -1.55420        2.08700
O          3.11290       -1.02220        0.84930
H          0.69840        0.90180       -0.46220
H          0.64470        0.01680        1.11570
H          0.73240       -0.90360       -0.43440
H          3.01840        0.00860       -0.88600
H          2.55460        1.35760        1.82510
H          3.12810        2.23060        0.36250
H          4.82520        1.29440        2.29940
H          5.32390        0.90660        0.57410
H          5.95840       -1.23150        2.56170
H          4.76420       -2.60430        2.11360
