15
565	1
C          2.90600       -0.17270       -1.35070
C          2.53030        0.00740        0.12050
C          3.10090        1.30710        0.72700
N          2.62640        1.48590        2.09810
C          4.54490        1.30710        0.72700
C          5.73510        1.30710        0.72700
H          2.44750       -1.10650       -1.73770
H          4.00620       -0.24590       -1.47250
H          2.52780        0.68220       -1.94960
H          2.88490       -0.87210        0.70240
H          1.42080        0.03970        0.18440
H          2.75480        2.17360        0.12210
H          2.89770        0.66600        2.68890
H          1.58450        1.56530        2.10260
H          6.79330        1.30680        0.72680
