18
1056	1
C          3.70380       -1.27640        0.68190
C          2.79120       -0.18070        0.18420
C          1.47720       -0.23630        0.45240
C          3.32220        0.96830       -0.60410
C          4.62530        1.10420       -0.90840
C          5.12420        2.27790       -1.70600
N          6.10440        3.02410       -0.92660
H          3.15170       -2.05590        1.25010
H          4.47490       -0.84480        1.35370
H          4.20010       -1.76890       -0.18050
H          1.05730       -1.05890        1.02370
H          0.80470        0.54200        0.10350
H          2.62180        1.72730       -0.94470
H          5.35110        0.36650       -0.58270
H          4.29360        2.95640       -2.00550
H          5.60640        1.89350       -2.63030
H          5.63120        3.43620       -0.08900
H          6.46130        3.81450       -1.51080
