22
1497	1
C          1.91260       -2.37790       -2.83380
C          3.28320       -1.74820       -2.59910
C          3.70980       -1.88780       -1.12930
C          5.06700       -1.21360       -0.81240
C          5.34180       -1.28950        0.69810
C          6.24690       -1.80260       -1.62390
N          6.40160       -3.24190       -1.41810
H          1.62760       -2.26300       -3.90090
H          1.14410       -1.87940       -2.20540
H          1.93890       -3.46090       -2.58770
H          3.23470       -0.67150       -2.87200
H          4.01030       -2.25720       -3.26450
H          3.75240       -2.96560       -0.85710
H          2.92820       -1.40490       -0.50100
H          4.99290       -0.13410       -1.07210
H          5.39200       -2.34040        1.05140
H          4.53030       -0.77870        1.25930
H          6.29850       -0.78000        0.94120
H          7.19110       -1.27970       -1.35110
H          6.08330       -1.61180       -2.70490
H          6.71960       -3.42570       -0.44030
H          7.15930       -3.58450       -2.05220
