19
315	1
C          0.99730       -0.06150        0.16600
C          2.52940       -0.10250        0.06400
C          3.00260       -1.56530       -0.01140
C          3.01930        0.78040       -1.12080
C          4.55110        0.90180       -1.17410
N          2.49330        0.30300       -2.40390
H          0.65550       -0.63490        1.05420
H          0.52690       -0.49990       -0.74000
H          0.64700        0.98660        0.27930
H          2.93590        0.33510        1.00310
H          2.60140       -2.07520       -0.91160
H          2.65000       -2.12140        0.88340
H          4.10920       -1.62880       -0.01950
H          2.62490        1.80700       -0.94640
H          5.03090       -0.07490       -1.38860
H          4.93710        1.29220       -0.20850
H          4.84590        1.61030       -1.97710
H          2.92370       -0.61480       -2.65830
H          2.73510        0.98910       -3.15570
