17
197	1
C          1.41090        0.43620       -0.21250
C          2.81130       -0.17960       -0.31510
O          3.53550        0.44340       -1.34540
C          3.55520       -0.10450        1.03520
C          4.89970       -0.80480        0.99980
N          5.94760       -0.30900        0.18170
N          5.11250       -1.84300        1.73020
H          0.88550        0.34080       -1.18640
H          1.47510        1.51240        0.05570
H          0.81350       -0.09090        0.56180
H          2.68360       -1.25140       -0.58300
H          3.61960        1.40570       -1.11360
H          2.90890       -0.58690        1.80140
H          3.70380        0.95360        1.34080
H          5.82580        0.55010       -0.37120
H          6.86050       -0.78670        0.16350
H          4.38380       -2.23290        2.34600
