12
4747	1
N          0.91330       -0.06230       -0.02540
C          2.32590       -0.06100       -0.01980
C          3.12470        1.06380       -0.01670
C          4.42180        0.59610       -0.01150
F          5.54650        1.35170       -0.00710
C          4.36440       -0.78390       -0.01170
N          3.07680       -1.17860       -0.01680
H          2.73080       -2.16380       -0.01820
H          0.39260        0.82660       -0.02750
H          0.39600       -0.95300       -0.02740
H          2.80280        2.09680       -0.01800
H          5.20990       -1.45910       -0.00840
