9
998	1
O          0.96670        0.09260       -0.06780
C          2.31220        0.08380       -0.06460
C          3.15220        1.16870       -0.06210
N          4.41970        0.71210       -0.05920
O          4.36930       -0.59290       -0.05990
C          3.12530       -1.01990       -0.06310
H          0.47590        0.92630       -0.06850
H          2.87190        2.21350       -0.06230
H          2.82180       -2.05820       -0.06430
