14
3252	2
N          1.26810        0.18540       -0.04590
C          2.59800       -0.42630       -0.08640
C          2.68960       -1.59170        0.91610
F          2.44990       -1.14010        2.20180
C          2.90780       -0.85760       -1.50660
N          2.91500        0.05740       -2.50410
O          3.15520       -2.02810       -1.76110
H          1.07830        0.56550        0.90970
H          0.53720       -0.52750       -0.27550
H          3.35230        0.33750        0.20500
H          3.70710       -2.03710        0.88750
H          1.94730       -2.38020        0.66680
H          2.71120        1.04820       -2.30760
H          3.12550       -0.22790       -3.47210
