12
2600	2
O          0.63760       -0.17990        0.26230
N          1.96890       -0.03340        0.33760
C          2.84820       -1.05630       -0.12180
N          2.37980       -2.14470       -0.62860
C          4.31450       -0.85450       -0.01040
C          5.20150       -1.77030       -0.42050
F          6.53200       -1.52820       -0.29220
H          0.38130        0.25740       -0.58980
H          2.35660        0.82910        0.74820
H          1.36760       -2.31290       -0.71870
H          4.68230        0.07200        0.42050
H          4.87820       -2.71010       -0.85690
