18
706	2
C          2.84100       -1.23810        0.59030
C          2.36110        0.02030       -0.13110
C          2.93180        1.30080        0.50200
N          4.38520        1.33500        0.47220
C          5.09880        1.40800       -0.68720
C          6.59870        1.44280       -0.65490
O          4.52850        1.45770       -1.76740
H          2.38540       -2.13360        0.11780
H          2.54040       -1.20830        1.65930
H          3.94580       -1.32910        0.52420
H          1.25210        0.06170       -0.07070
H          2.63770       -0.04710       -1.20310
H          2.59080        1.34210        1.56000
H          2.52760        2.19640       -0.01770
H          4.88860        1.32460        1.37240
H          6.98460        1.39570        0.38510
H          6.95850        2.38260       -1.12350
H          7.00180        0.57680       -1.22070
