13
3256	1
N          1.04000        0.24500        0.03670
C          2.50260        0.15050        0.03240
C          3.04800        0.22220       -1.40250
F          2.53120       -0.81000       -2.16530
C          3.10460        1.24560        0.88070
O          2.31240        2.16190        1.47990
O          4.31620        1.29760        1.03500
H          0.63080       -0.56630       -0.48120
H          0.73220        1.12780       -0.43410
H          2.79400       -0.82590        0.47890
H          4.15510        0.12990       -1.39670
H          2.77570        1.19140       -1.87320
H          2.68740        2.86690        2.02660
