15
6082	1
C          0.89430        0.01860        0.03290
C          2.39200       -0.05720        0.03430
C          3.21940        0.99280        0.03760
C          4.54350        0.55500        0.03800
C          4.57320       -0.82680        0.03500
C          3.19690       -1.27480        0.03250
C          2.76850       -2.53980        0.02920
H          0.55030        1.07480        0.03480
H          0.49680       -0.48900        0.93620
H          0.49870       -0.48500       -0.87360
H          2.90510        2.02860        0.03950
H          5.41910        1.19020        0.04040
H          5.46450       -1.44050        0.03460
H          3.48090       -3.35880        0.02820
H          1.70640       -2.76210        0.02760
