17
1319	1
C          1.00930        0.00440        0.24530
C          2.53960       -0.02640        0.07710
C          2.93620       -0.02380       -1.41330
N          3.24810        1.05190        0.78280
C          4.14700        0.02340        1.32600
C          3.23570       -1.11480        0.89030
F          3.86970       -2.11710        0.17400
H          0.58870        0.90690       -0.24710
H          0.72620        0.02840        1.31930
H          0.55710       -0.89950       -0.21550
H          2.53470        0.88340       -1.91290
H          2.52230       -0.92110       -1.92080
H          4.04020       -0.02640       -1.53880
H          2.66100        1.38800        1.58370
H          4.32790        0.08970        2.42230
H          5.09040        0.03990        0.73350
H          2.62330       -1.45090        1.75610
