13
1670	1
O          1.00430        0.20510       -0.08460
C          2.38420        0.09130        0.11180
C          3.14970       -0.61960       -1.01840
C          3.08960        0.89150       -0.97010
C          4.45870        1.49540       -0.64970
F          4.29980        2.82650       -0.31460
H          0.63200       -0.67240        0.18760
H          2.78890        0.45840        1.07960
H          2.38860       -1.16730       -1.61450
H          3.94470       -1.18350       -0.48540
H          2.51010        1.26970       -1.84030
H          5.10850        1.42710       -1.54720
H          4.96310        0.97360        0.19270
