15
1849	1
O          1.23290        0.53950        1.04490
N          2.09020       -0.09730        0.22930
C          2.95030       -1.13310        0.76940
C          2.11870       -2.25310        1.33490
C          2.22100       -3.50470        0.87750
C          2.17970        0.27050       -1.14790
N          1.43980        1.20020       -1.63960
H          0.37630        0.04740        0.95600
H          3.57280       -0.70180        1.58140
H          3.64040       -1.51850       -0.01430
H          1.41840       -2.03860        2.13690
H          2.91110       -3.75440        0.07730
H          1.60750       -4.28980        1.30740
H          2.88220       -0.23870       -1.80040
H          0.75740        1.71450       -1.06450
