14
1744	1
N          2.66660       -1.03120       -0.81890
C          2.21830        0.12450       -0.12430
N          1.00490        0.19890        0.29410
C          3.17000        1.25900        0.15190
C          3.71180        1.77530       -1.17860
C          2.80240        2.65380       -0.34310
H          2.02350       -1.81470       -1.00440
H          3.64310       -1.09890       -1.14010
H          0.33420       -0.56570        0.12820
H          4.07810        1.05030        0.75670
H          3.14710        1.63650       -2.12640
H          4.67870        2.32190       -1.19670
H          1.70830        2.65490       -0.53850
H          3.23850        3.33930        0.41430
