12
6111	1
C          0.93480        0.12180        0.00300
C          2.42790        0.09120        0.00690
C          3.28230        1.17480        0.00910
O          4.52630        0.74180        0.01240
C          4.52840       -0.57500        0.01250
C          3.22740       -1.02530        0.00910
F          2.81930       -2.31790        0.00800
H          0.56740        1.16980        0.00200
H          0.54950       -0.39410        0.90710
H          0.55430       -0.39410       -0.90320
H          2.99700        2.21860        0.00830
H          5.41960       -1.18830        0.01490
