20
2732	1
C          1.53620       -1.19050       -0.38690
N          2.99600       -1.26030       -0.45780
C          3.52870       -0.19910       -1.31880
C          5.04280       -0.25000       -1.32990
C          5.74460       -0.05590       -0.00130
C          5.68340       -0.45710       -2.51050
C          7.17410       -0.53740       -2.72120
H          1.16110       -2.00180        0.27180
H          1.08450       -1.31760       -1.39550
H          1.21570       -0.21870        0.04660
H          3.26160       -2.18980       -0.86070
H          3.22060        0.79650       -0.92990
H          3.10840       -0.30690       -2.34510
H          5.41610       -0.84550        0.70620
H          5.45730        0.93160        0.41640
H          6.84450       -0.08670       -0.02660
H          5.08270       -0.58180       -3.40740
H          7.79910       -0.41550       -1.82300
H          7.47290        0.25050       -3.44330
H          7.41630       -1.52690       -3.16130
