10
2375	1
O          0.99060       -0.52170       -0.07100
C          2.16650       -0.19040       -0.06460
C          2.86000        0.20010       -1.33120
C          3.30720        1.60030       -1.26620
N          3.66500        2.70060       -1.21580
C          2.91470       -0.22220        1.15960
C          3.55840       -0.26690        2.17450
H          2.18600        0.07190       -2.19660
H          3.73400       -0.46670       -1.48380
H          4.12990       -0.27630        3.06330
