13
518	1
C          1.07470        0.01320        0.09230
C          2.57880       -0.21690       -0.12010
C          3.00370       -1.54370        0.52110
F          4.37030       -1.72480        0.39570
C          2.95680       -0.20890       -1.58430
O          2.11550       -0.06380       -2.45840
H          0.83930        0.03190        1.17800
H          0.48030       -0.79460       -0.38700
H          0.77170        0.98990       -0.34200
H          3.12680        0.61050        0.38090
H          2.47950       -2.39630        0.03740
H          2.75150       -1.54090        1.60310
H          3.99770       -0.33100       -1.86660
