17
218	1
C          0.75940       -0.04860        0.48410
C          2.27470       -0.21750        0.29960
C          2.72470       -1.55250        0.89240
O          2.61920       -0.19180       -1.04240
C          2.52110        0.89930       -1.84770
C          2.85760        0.76990       -3.29830
O          2.17890        1.98400       -1.39770
H          0.49940       -0.08540        1.56350
H          0.21240       -0.85800       -0.04550
H          0.41550        0.92780        0.08670
H          2.81030        0.59530        0.83940
H          2.22070       -2.39840        0.37720
H          2.48530       -1.59480        1.97660
H          3.82310       -1.66660        0.77170
H          3.90930        0.43180       -3.40560
H          2.73720        1.74340       -3.82020
H          2.18420        0.02370       -3.76890
