10
4522	1
O          0.96830       -0.06880        0.03580
C          2.31370       -0.08090        0.03050
N          3.07440        1.03540        0.02470
C          4.34500        0.58130        0.02090
C          4.32100       -0.79520        0.02450
F          5.39650       -1.61970        0.02240
N          3.04610       -1.20860        0.03060
H          2.69840       -2.19300        0.03440
H          0.48140        0.76700        0.03550
H          5.22290        1.21320        0.01580
