16
560	1
C          0.94680       -0.09500       -0.01440
N          2.40980       -0.07300       -0.02320
C          2.91900        0.98900        0.85110
C          4.45170        0.97960        0.85200
C          5.02270        2.06190        1.76830
F          6.40400        2.00130        1.74920
F          4.62300        3.31570        1.34040
H          0.58730       -0.90940       -0.67810
H          0.53470        0.86960       -0.38490
H          0.56780       -0.29380        1.01120
H          2.72650        0.10980       -1.00470
H          2.55990        0.82050        1.89120
H          2.55310        1.98020        0.49890
H          4.82600        1.14640       -0.18170
H          4.80890       -0.01330        1.20270
H          4.67350        1.90390        2.81090
