13
1295	2
C          0.79780       -0.33590       -0.90450
C          1.55910        0.26670        0.01390
C          2.94790       -0.21940        0.33420
N          3.92440        0.82340        0.07730
C          5.24750        0.63240        0.31090
O          5.66070       -0.43130        0.74850
H         -0.19920        0.03920       -1.11140
H          1.15970       -1.20040       -1.45260
H          1.16750        1.12930        0.54510
H          3.20280       -1.11640       -0.27320
H          2.97890       -0.50040        1.40890
H          3.61700        1.73640       -0.29260
H          5.95080        1.43360        0.10730
