10
5193	1
O          0.96520       -0.06220        0.05330
C          2.18410       -0.00510        0.05580
C          2.88030        1.32540        0.03490
O          4.25900        1.18270        0.04140
C          4.90180       -0.01540        0.06390
N          4.23920       -1.12280        0.08100
O          2.91520       -1.14400        0.07760
H          2.57540        1.91130        0.92740
H          2.58060        1.88020       -0.87890
H          5.98580       -0.03980        0.06740
