11
937	1
C          1.02470        0.05200       -0.03090
C          2.53280        0.01280       -0.24500
O          2.89590       -1.07960       -1.02520
C          3.46960       -0.60620       -2.13710
N          3.49910        0.65500       -2.12790
O          2.95170        1.08600       -1.01940
H          0.70280       -0.84410        0.54050
H          0.49670        0.06660       -1.00840
H          0.74970        0.96240        0.54230
H          3.07220       -0.00300        0.72660
H          3.85810       -1.21530       -2.94180
