14
4439	2
C          1.00160        0.00070       -0.04640
C          2.49650       -0.04390       -0.12260
C          3.23760       -1.14940       -0.13800
C          4.70900       -0.80160       -0.22100
C          4.57850        0.69580       -0.24520
O          5.51600        1.47490       -0.30960
N          3.30320        1.09360       -0.18760
H          0.57440       -1.02380       -0.00330
H          0.60190        0.51930       -0.94240
H          0.69500        0.55640        0.86390
H          2.84030       -2.15540       -0.09680
H          5.16890       -1.19020       -1.15380
H          5.26320       -1.15250        0.67460
H          2.97660        2.07120       -0.19090
