10
3391	1
F          0.91680        0.08820       -0.64170
C          2.21950        0.02740       -0.17540
C          2.83540       -1.21220       -0.65650
N          3.32150       -2.19140       -1.03660
C          3.04290        1.20970       -0.62170
F          4.33990        1.29490       -0.22060
C          2.53950        2.17940       -1.39550
H          2.19410        0.00820        0.93400
H          1.51070        2.15530       -1.73920
H          3.16680        3.01370       -1.69260
