16
5069	1
O          1.17520        0.03550        0.05860
C          2.39610        0.01520        0.08790
C          3.15300       -1.27510        0.08790
C          4.08910       -1.25630       -1.12760
N          4.94200       -0.05210       -1.10160
C          4.13160        1.17940       -1.17490
C          3.19670        1.27790        0.03760
H          2.47170       -2.15250        0.05090
H          3.76200       -1.33220        1.01600
H          3.49030       -1.27620       -2.06690
H          4.72630       -2.16650       -1.10940
H          5.57610       -0.07890       -1.93370
H          3.53370        1.18350       -2.11500
H          4.80000        2.06690       -1.19140
H          2.54570        2.17590       -0.03480
H          3.80730        1.35080        0.96350
