13
5133	1
F          1.33380       -0.04130        0.94500
C          2.51500       -0.07050        0.22540
C          2.64850        1.14140       -0.68150
O          3.86610        1.03600       -1.33250
N          4.24120       -0.08590       -1.93710
C          3.68790       -1.22600       -1.67050
C          2.59070       -1.33840       -0.63570
H          3.37380       -0.05350        0.93320
H          2.61670        2.08610       -0.09910
H          1.82170        1.14810       -1.42570
H          3.96680       -2.10080       -2.24800
H          2.76610       -2.20380        0.03800
H          1.64060       -1.50470       -1.18740
