9
1043	1
O          0.93660        0.12900       -0.38400
N          2.27690        0.05580       -0.20700
C          3.13820        1.08100       -0.20870
C          4.38680        0.53900        0.00150
N          4.23820       -0.79890        0.12220
N          2.94570       -1.06600       -0.00940
H          0.56310        0.22030        0.52980
H          2.87880        2.12190       -0.35000
H          5.32900        1.06650        0.06210
