17
4197	1
O          1.02560       -0.00710       -0.30050
C          2.40290        0.00270       -0.04240
C          2.81630        1.09360        0.94720
C          4.25430        0.68470        1.22590
C          4.18640       -0.84930        1.35240
O          5.30020       -1.45490        0.74490
C          2.84330       -1.24950        0.70440
H          0.83670        0.81060       -0.83020
H          2.98290        0.08810       -0.99260
H          2.21450        1.00890        1.88140
H          2.72190        2.12630        0.54880
H          4.76290        1.20020        2.06760
H          4.81520        0.93620        0.29570
H          4.14190       -1.17380        2.41550
H          5.21100       -1.33770       -0.23730
H          2.11100       -1.37820        1.53630
H          2.84670       -2.19830        0.12650
