10
203	1
C          0.99850       -0.11880        0.09250
O          2.40750       -0.09590        0.06940
C          2.83790        1.08620       -0.56710
C          4.30030        1.10770       -0.59730
N          5.45710        1.12420       -0.62200
H          0.67220       -1.04970        0.59930
H          0.57790       -0.14410       -0.93740
H          0.58780        0.73270        0.68020
H          2.50390        1.99150       -0.01470
H          2.48030        1.13680       -1.61960
