14
32	1
C          0.90120        0.03440        0.07430
C          2.43000       -0.03220        0.18120
C          2.90760        0.99850        1.22560
O          2.78440       -1.32670        0.60170
C          3.01730        0.22890       -1.19260
O          3.78240        1.16070       -1.39060
H          0.43370       -0.17980        1.05960
H          0.52960       -0.71870       -0.65390
H          0.57320        1.04240       -0.26150
H          2.46040        0.77790        2.21870
H          2.61340        2.02800        0.92670
H          4.01350        0.96410        1.32930
H          3.77620       -1.37310        0.64300
H          2.75610       -0.42680       -2.01750
