14
1404	1
C          0.86530        0.03770       -0.14900
C          2.36500        0.00520       -0.26350
C          3.11710       -0.82660        0.48220
C          4.61850       -0.86690        0.36550
C          5.22340       -0.53640        1.66300
C          5.72310       -0.26530        2.72810
H          0.54000        1.05950        0.14150
H          0.48050       -0.68400        0.60400
H          0.41500       -0.20680       -1.13510
H          2.83340        0.68020       -0.97360
H          2.64250       -1.50000        1.19130
H          4.99640       -0.15860       -0.40460
H          4.92760       -1.89420        0.07500
H          6.14700       -0.02380        3.66880
