14
179	1
C          2.03590       -0.42120       -0.85980
N          3.29370       -0.82270       -0.22940
C          3.25710       -0.56490        1.21430
C          4.55530       -1.03010        1.87560
O          4.72490       -2.41310        1.71700
H          2.08950       -0.62540       -1.94990
H          1.84840        0.66530       -0.71240
H          1.18920       -1.00680       -0.44120
H          4.06810       -0.26210       -0.65680
H          2.40770       -1.11360        1.67910
H          3.12770        0.52440        1.40560
H          4.51110       -0.80570        2.96230
H          5.43070       -0.47520        1.46630
H          5.13410       -2.55170        0.82320
