14
1065	1
C          1.00930       -0.09670        0.17560
C          2.49620       -0.04010       -0.00220
C          3.27360       -1.08210       -0.16720
O          4.55310       -0.72850       -0.29970
C          4.72240        0.64130       -0.22890
C          3.29940        1.21130       -0.01580
H          0.64150       -1.14470        0.14990
H          0.51810        0.47500       -0.63910
H          0.73690        0.35430        1.15240
H          2.93380       -2.10930       -0.19480
H          5.16220        1.01340       -1.17890
H          5.38460        0.89330        0.62690
H          2.98430        1.86170       -0.85980
H          3.20670        1.73760        0.95840
