9
5503	1
F          0.96210       -0.04980       -0.10140
C          2.31660       -0.00900       -0.09880
C          2.99030        1.20950       -0.09700
N          4.34700        1.21900       -0.09430
C          5.04040        0.05170       -0.09340
N          4.37070       -1.13110       -0.09520
N          3.03660       -1.15960       -0.09780
H          2.44070        2.14150       -0.09770
H          6.12160        0.06290       -0.09130
