13
4616	1
C          0.92900       -0.00750        0.08300
C          2.42660       -0.01970        0.07200
C          3.17310       -1.10530       -0.01810
C          4.52940       -0.65030        0.00850
O          5.51640       -1.36450       -0.05410
O          4.58190        0.68660        0.11280
C          3.29860        1.21600        0.16290
H          0.51990       -1.03750        0.00510
H          0.55870        0.59130       -0.77490
H          0.57080        0.45010        1.02850
H          2.82150       -2.12630       -0.09570
H          3.12160        1.89320       -0.69920
H          3.13380        1.75050        1.12230
