15
3855	1
C          2.13170        0.25450        1.55270
C          2.61800        0.10280        0.11300
C          3.07210       -1.31420       -0.18960
C          2.06560       -2.43880       -0.10070
C          4.34900       -1.56540       -0.55020
F          5.25970       -0.55920       -0.64060
F          4.75780       -2.83210       -0.83050
H          1.82280        1.30640        1.72950
H          2.94820       -0.00050        2.26150
H          1.25550       -0.39670        1.75010
H          3.43960        0.83470       -0.03960
H          1.79590        0.37440       -0.58320
H          1.22500       -2.23480       -0.79640
H          1.66910       -2.51900        0.93150
H          2.49720       -3.42600       -0.36690
