10
6126	1
N          0.95150       -0.07190       -0.04190
C          2.36360       -0.08570       -0.03930
C          3.20390        1.00030       -0.03720
O          4.43990        0.54400       -0.03510
N          4.46130       -0.76240       -0.03580
C          3.18310       -1.18240       -0.03840
F          2.80100       -2.48260       -0.03990
H          0.44170        0.82320       -0.04240
H          0.42330       -0.95640       -0.04340
H          2.92500        2.04560       -0.03710
