10
1036	1
N          1.03170        0.01430       -0.36790
N          2.42570        0.00120       -0.18790
C          3.24480        1.05940       -0.09590
N          4.51850        0.64640        0.05620
N          4.50640       -0.68230        0.05640
C          3.22520       -1.07190       -0.09530
H          0.64660        0.84880        0.13120
H          0.63200       -0.81790        0.12360
H          2.93250        2.09470       -0.13970
H          2.89420       -2.10130       -0.13930
