15
517	1
C          1.04450       -0.01360        0.20090
C          2.53330       -0.13510       -0.13780
C          3.04460       -1.55540        0.13460
F          2.37650       -2.48360       -0.64650
C          2.75880        0.22730       -1.58690
C          3.53770        1.25440       -1.94090
H          0.87340       -0.26320        1.26990
H          0.43600       -0.69890       -0.42790
H          0.69910        1.02830        0.02790
H          3.09300        0.56160        0.52620
H          2.89700       -1.81390        1.20500
H          4.13160       -1.61450       -0.08770
H          2.27580       -0.36060       -2.36280
H          4.03580        1.86360       -1.19290
H          3.67940        1.48930       -2.99080
