15
5404	1
F          1.03240        0.05640       -0.03230
C          2.39120        0.03070       -0.02100
C          3.07410        1.18160       -0.14530
C          4.58650        1.23440       -0.05950
N          5.18660       -0.02630        0.41450
C          4.57760       -1.17530       -0.25320
C          3.09740       -1.29010        0.13640
H          2.52960        2.10770       -0.30190
H          4.87150        2.03560        0.65600
H          4.99420        1.50990       -1.05530
H          5.03730       -0.12060        1.44740
H          5.11110       -2.11170        0.01630
H          4.66780       -1.04010       -1.35500
H          2.97400       -1.62240        1.18920
H          2.63810       -2.05040       -0.53080
