11
298	1
N          0.91230       -0.09520       -0.08330
C          2.30320        0.03820        0.17090
N          2.87660        1.18020        0.01960
C          3.08010       -1.15080        0.61060
C          4.39620       -1.12600        0.87520
F          5.12620        0.01490        0.75650
F          5.01940       -2.26620        1.27170
H          0.35410        0.71540       -0.38880
H          0.44550       -1.00600        0.03550
H          2.34620        2.00990       -0.28470
H          2.55160       -2.09290        0.72380
