13
1145	1
C          1.06200        0.00520        0.04110
C          2.58290        0.01210        0.05590
F          3.04150        0.25130       -1.22120
C          3.09990        1.05970        0.94220
C          3.52270        1.92440        1.66780
C          3.99600        2.99030        2.55130
F          3.26480        2.94430        3.71770
H          0.69960       -0.78390       -0.64700
H          0.67540        0.97510       -0.32360
H          0.65120       -0.18750        1.05140
H          2.96350       -0.97870        0.38270
H          3.85250        3.98740        2.08370
H          5.06350        2.85390        2.79460
