15
1827	1
C          0.80150        1.40800       -0.07810
C         -0.68340        1.22380        0.17790
C         -0.95720       -0.15730       -0.41590
N         -0.67230       -1.17340        0.61070
C          0.33160       -0.89680       -0.43020
C          1.39540        0.03070        0.15550
H          1.28200        2.23460        0.48630
H          0.91360        1.62380       -1.16680
H         -1.25820        2.03570       -0.31630
H         -0.91560        1.21900        1.26690
H         -1.96160       -0.41190       -0.82220
H         -1.17950       -2.05200        0.34600
H          0.61300       -1.88970       -0.84700
H          2.37830       -0.05140       -0.35530
H          1.52580       -0.18240        1.24050
