17
131	1
C          0.90980       -0.01900       -0.09340
C          2.44570        0.00360        0.01200
C          3.03190        0.81300       -1.15930
C          2.84810        0.68010        1.34090
C          2.96830       -1.42350       -0.06180
O          2.71260       -2.17350       -1.15650
O          3.61780       -1.90140        0.85840
H          0.49790        1.01260       -0.05270
H          0.47020       -0.60390        0.74360
H          0.58490       -0.48210       -1.05030
H          2.65960        1.86020       -1.13860
H          2.74370        0.36430       -2.13470
H          4.14190        0.83560       -1.10080
H          2.46170        1.72150        1.38470
H          3.95440        0.71730        1.44380
H          2.43350        0.12100        2.20770
H          3.03430       -3.08350       -1.22660
