15
2728	1
C          1.54030       -0.42020       -0.35270
C          3.03660       -0.16290       -0.19930
C          3.30930        0.89170        0.87770
C          4.78900        1.14580        1.00340
F          5.47770        1.60750       -0.07490
C          5.43670        0.93020        2.15400
F          6.77140        1.16960        2.23990
H          1.37310       -1.18770       -1.13760
H          1.01670        0.51310       -0.65060
H          1.11180       -0.79020        0.60310
H          3.44130        0.18300       -1.17570
H          3.53880       -1.11580        0.07790
H          2.88280        0.54250        1.84460
H          2.81140        1.84640        0.60280
H          4.90950        0.56310        3.02930
