9
340	1
C         -1.17500        0.00310        0.00020
C         -0.33360        1.09690       -0.00070
N          0.94350        0.66790       -0.00100
N          0.93240       -0.65530       -0.00030
H          1.78940       -1.25110       -0.00030
C         -0.33900       -1.09100        0.00050
H         -2.25670        0.00490        0.00070
H         -0.62990        2.13720       -0.00120
H         -0.63420       -2.13190        0.00120
