10
738	1
O          1.15630        0.73500       -0.38410
C          2.30960        0.16980        0.18160
C          2.11810       -1.29500        0.49750
O          1.56020       -2.03180       -0.29580
C          2.70460       -1.84110        1.69260
C          3.19910       -2.30220        2.68980
H          0.86390        0.15250       -1.13330
H          2.52880        0.71530        1.12620
H          3.18440        0.31280       -0.49210
H          3.60810       -2.67650        3.58910
