17
3510	2
C          1.08320        0.98650        0.40710
N          2.50600        1.24910        0.39530
C          3.32460        0.71490       -0.55150
O          2.86390       -0.01310       -1.42210
C          4.80850        1.02420       -0.52130
C          5.58710        0.29960       -1.63210
N          5.00610        2.47120       -0.62280
H          0.60830        1.51810        1.25870
H          0.89870       -0.10300        0.51960
H          0.62310        1.34600       -0.53790
H          2.90400        1.85880        1.12590
H          5.20730        0.67750        0.45740
H          5.22630        0.61580       -2.63450
H          5.46260       -0.80000       -1.53320
H          6.67000        0.53400       -1.55400
H          4.66570        2.81580       -1.55030
H          6.02420        2.69510       -0.53570
