19
347	1
C          0.86190        0.22690       -0.14820
C          2.36630        0.18730        0.15720
C          2.74650        0.02970        1.63690
C          3.19150       -0.67880       -0.79840
C          3.36030        0.86370       -0.77540
C          2.89690        1.67390       -1.99240
O          4.51230        1.32960       -0.12470
H          0.37230       -0.65890        0.30820
H          0.62610        0.20450       -1.22930
H          0.42060        1.14330        0.29600
H          2.25430       -0.87490        2.05190
H          2.39650        0.91770        2.20350
H          3.84070       -0.08080        1.79120
H          2.72730       -0.97200       -1.76420
H          4.14720       -1.12810       -0.45230
H          2.04170        1.21830       -2.52690
H          3.73530        1.74680       -2.71610
H          2.61850        2.69780       -1.66750
H          5.27890        1.01690       -0.67120
