11
193	1
O          2.84280       -0.21840        1.53180
C          2.55210        0.10380        0.19950
C          3.06920       -0.99260       -0.73090
C          4.55920       -1.13780       -0.62380
O          5.26800       -0.96190       -1.60190
H          2.47910        0.52470        2.07980
H          3.02990        1.07190       -0.07300
H          1.44970        0.18250        0.06860
H          2.79070       -0.73560       -1.77660
H          2.59050       -1.96020       -0.46830
H          5.01220       -1.40470        0.32560
