12
1304	1
C          1.82680        0.34770       -1.40540
C          2.50630       -0.30060       -0.45450
C          2.78560        0.32410        0.88220
O          4.15400        0.36330        1.08480
C          4.87650        1.49250        1.30720
O          4.34470        2.59230        1.33910
H          1.64190       -0.13220       -2.36090
H          1.45300        1.35360       -1.24010
H          2.86710       -1.30590       -0.65140
H          2.32690       -0.30850        1.67040
H          2.32350        1.33400        0.95320
H          5.94760        1.41510        1.45730
