13
2779	1
C          1.01800       -0.05810       -0.08950
C          2.51330       -0.05770       -0.10550
C          3.23610        1.19750        0.26480
C          3.37640        1.41700        1.70230
N          3.48090        1.57930        2.84240
N          3.15850       -1.13310       -0.40080
O          4.47550       -1.16110       -0.38490
H          0.64330        0.71080       -0.79790
H          0.66510        0.19030        0.93390
H          0.61680       -1.05000       -0.38310
H          2.84900        2.12470       -0.20990
H          4.17780        1.44430       -0.27090
H          4.94650       -1.98750       -0.55200
