13
3294	1
N          1.64800       -0.92150       -0.55360
C          2.63930        0.09780       -0.60610
N          3.09800        0.48860       -1.74280
C          3.15710        0.74010        0.66070
F          2.51470        0.22570        1.77460
C          4.66140        0.51750        0.81240
F          5.11010        1.12750        1.96980
H          1.29690       -1.35250       -1.42120
H          1.26810       -1.24600        0.34660
H          2.76460        0.07470       -2.62590
H          2.95210        1.83150        0.61600
H          5.20760        0.95220       -0.05180
H          4.88310       -0.56980        0.86930
