19
375	1
C          2.87880        1.37190        0.26470
C          2.49490       -0.09500        0.04670
C          3.09000       -0.73330       -1.24070
C          2.58820       -2.19090       -1.33690
N          2.63950        0.02260       -2.41750
C          4.63590       -0.73280       -1.19260
F          5.16650       -1.35190       -2.31180
H          2.37910        1.74820        1.18200
H          2.55210        1.99500       -0.59400
H          3.97170        1.48590        0.40970
H          1.38450       -0.14490       -0.00720
H          2.81600       -0.67750        0.93820
H          1.47800       -2.22160       -1.37470
H          2.92420       -2.78020       -0.45630
H          2.97450       -2.68370       -2.25460
H          1.59400        0.02880       -2.46630
H          2.99840       -0.41810       -3.29610
H          4.99490       -1.27130       -0.28930
H          5.03330        0.30200       -1.16490
