11
176	2
N          1.75260        0.03250        0.96960
C          2.59760       -0.22590       -0.05620
O          2.79620       -1.38180       -0.40090
C          3.28940        0.89730       -0.78200
C          4.77740        0.75650       -0.66470
O          5.44220        1.63980       -0.14710
H          1.27970       -0.74030        1.46130
H          1.57120        1.00050        1.27250
H          2.97450        1.87960       -0.36640
H          3.00460        0.86900       -1.85500
H          5.27020       -0.13300       -1.04480
