12
834	1
N          1.77540       -2.05540        1.31740
C          2.00960       -0.99330        0.51660
O          1.06880       -0.35750        0.06060
O          3.29110       -0.64600        0.21930
C          3.64480        0.44240       -0.56120
C          3.32870        1.75660        0.10170
O          2.81820        1.79940        1.21030
H          0.81020       -2.33310        1.55000
H          2.56240       -2.59730        1.70290
H          3.13410        0.38140       -1.54660
H          4.74000        0.40800       -0.73610
H          3.57060        2.68190       -0.41050
