10
6249	1
N          1.07130        0.13770       -0.06780
C          2.48110        0.06100       -0.06940
N          3.30780        1.11970       -0.07530
N          4.54330        0.62920       -0.07480
O          4.50030       -0.67620       -0.06890
C          3.25140       -1.06750       -0.06540
O          2.83160       -2.34500       -0.05910
H          0.60370        1.05540       -0.07120
H          0.50330       -0.72170       -0.06320
H          3.47010       -3.07130       -0.05680
