15
897	1
N          1.11970        0.04340       -0.18260
C          2.57120        0.07960       -0.01030
C          3.05480        1.14760        0.92250
C          4.47220        0.63990        1.12160
O          4.40660       -0.77480        1.19640
C          3.12490       -1.13690        0.71400
H          0.80990        0.94150       -0.61960
H          0.64550       -0.04880        0.74530
H          3.07570        0.19060       -0.99930
H          2.50590        1.07430        1.89050
H          2.98360        2.18790        0.54020
H          4.92770        1.08620        2.03060
H          5.09320        0.90240        0.23550
H          2.49620       -1.38490        1.59910
H          3.16540       -2.01590        0.03720
