13
4447	1
C          0.91680       -0.06560       -0.02760
C          2.40980       -0.07900       -0.02270
C          3.24540        1.02580       -0.02010
N          4.52180        0.59460       -0.01590
H          5.38540        1.18170       -0.01320
C          4.44170       -0.75950       -0.01590
O          5.41130       -1.49690       -0.01260
N          3.15910       -1.19820       -0.02000
H          2.82370       -2.18740       -0.02100
H          0.53610        0.97760       -0.02900
H          0.53860       -0.58680        0.87630
H          0.54450       -0.58710       -0.93370
H          2.94780        2.06630       -0.02130
