13
35	1
C          1.01690       -0.09100        0.10020
C          2.54950       -0.06220        0.07970
C          3.10730       -1.42870       -0.33440
F          2.96060        0.88150       -0.84720
C          3.08120        0.32850        1.43460
O          2.84670       -0.35740        2.41800
H          0.62430       -0.35060       -0.90620
H          0.61910        0.90770        0.38170
H          0.64400       -0.84200        0.83010
H          2.73840       -1.70340       -1.34580
H          2.79510       -2.21850        0.38280
H          4.21750       -1.39510       -0.36650
H          3.67910        1.22780        1.54230
