16
332	1
C          0.89680        0.02490        0.04110
C          2.42590       -0.02060       -0.06400
C          3.06360       -0.23560        1.31370
C          2.87170       -1.09450       -1.04250
N          3.59910       -0.72950       -2.20440
N          2.60020       -2.33650       -0.83560
H          0.58570        0.84570        0.72210
H          0.49030       -0.93030        0.43540
H          0.45310        0.21710       -0.95920
H          2.76500        0.97020       -0.43840
H          2.74580       -1.20170        1.75980
H          2.76690        0.58330        2.00330
H          4.17110       -0.22970        1.22440
H          3.82890        0.25680       -2.39230
H          3.90560       -1.45100       -2.87340
H          2.07490       -2.64860       -0.00650
