10
5217	1
O          0.96010       -0.12720        0.07350
C          2.17940       -0.10620        0.06860
O          2.83700        1.07620        0.04990
C          4.21940        1.16350        0.04350
C          4.89380       -0.18780        0.05960
N          4.20170       -1.27660        0.07720
O          2.87750       -1.26530        0.08190
H          4.54580        1.73620        0.93640
H          4.53910        1.71140       -0.86720
H          5.97720       -0.24280        0.05630
