17
2796	1
C          0.54640       -0.15340       -0.39650
C          1.97100       -0.02380        0.08160
C          2.39120        0.43270        1.28530
C          1.44610        0.90210        2.37960
O          3.73850        0.45940        1.49400
C          4.35900        0.87920        2.62590
C          5.68890        0.85290        2.69750
H          0.35570       -1.21540       -0.65550
H          0.42450        0.45850       -1.31430
H         -0.23720        0.15740        0.31130
H          2.73370       -0.33430       -0.62800
H          0.37200        0.85460        2.14660
H          1.67110        1.96130        2.62390
H          1.60190        0.28000        3.28550
H          3.79620        1.23870        3.48120
H          6.27840        0.49840        1.85760
H          6.19260        1.18680        3.59890
