14
3005	1
F          1.22410        0.18120        0.49940
C          2.51970        0.27810        0.09250
C          3.07870        1.62920       -0.18620
C          2.32990        2.72700       -0.04190
C          3.22380       -0.86540       -0.03460
C          4.64320       -0.94440       -0.46580
C          5.25590       -2.12740       -0.56160
H          4.10210        1.75780       -0.51170
H          1.29540        2.66620        0.28170
H          2.75600        3.70330       -0.25010
H          2.71280       -1.79690        0.19630
H          5.21130       -0.05710       -0.71070
H          4.73250       -3.04980       -0.32770
H          6.29310       -2.17660       -0.87740
