14
3613	1
C          0.99580        0.13620       -0.86350
N          2.29980        0.00900       -0.24250
O          2.77480       -1.21820        0.02810
C          3.03540        1.11600        0.07440
O          2.59610        2.23240       -0.17110
C          4.37030        0.97790        0.71760
C          5.11610        2.04110        1.04030
H          0.55270       -0.86720       -1.03980
H          1.08960        0.65660       -1.84050
H          0.31380        0.71090       -0.20120
H          3.24290       -1.50240       -0.79910
H          4.76060       -0.01130        0.93620
H          4.77300        3.05210        0.84360
H          6.08480        1.89920        1.50850
