15
632	1
C          0.69550       -0.25910        0.39670
C          2.22060       -0.29150        0.33820
F          2.63910       -1.58550        0.07810
C          2.75030        0.64620       -0.74700
O          4.12470        0.60150       -0.76580
N          4.80610        1.33260       -1.62360
C          6.08770        1.28870       -1.63880
H          0.33750       -0.94350        1.19460
H          0.26350       -0.58590       -0.57330
H          0.33990        0.76820        0.62560
H          2.62480        0.02450        1.32460
H          2.41930        1.68720       -0.53660
H          2.35650        0.33410       -1.73950
H          6.63980        1.89440       -2.34880
H          6.62750        0.64940       -0.94590
