12
1835	1
C          0.42080        1.51040        0.49890
C          0.92670        0.38360       -0.38340
N          0.86400       -0.93940        0.18330
N         -0.40070       -1.33310        0.47000
C         -1.23700       -0.42890        0.18220
C         -0.58490        0.80290       -0.38420
H          0.72140        2.51290        0.13030
H          0.37490        1.25540        1.58000
H          1.28170        0.47190       -1.43330
H          1.68270       -1.54780        0.32420
H         -2.30060       -0.54790        0.33670
H         -0.83430        1.16330       -1.40590
