11
5678	1
C          1.15110        0.02510        0.18850
C          2.44230        0.03620       -0.14800
O          3.13320        1.12960       -0.49150
C          4.45730        0.78060       -0.78250
O          4.53270       -0.60290       -0.59420
C          3.33760       -1.06150       -0.21530
O          3.08970       -2.23240        0.02490
H          0.58260        0.94940        0.19700
H          0.65920       -0.90490        0.45580
H          5.15190        1.30040       -0.08930
H          4.69910        1.03800       -1.83530
