14
1144	1
C          1.06070        0.10400       -0.10270
C          2.57610        0.05140       -0.06490
F          3.02440        1.20320        0.50820
C          3.05750       -1.05990        0.72160
C          3.45420       -1.97580        1.36980
C          3.93550       -3.08710        2.15630
O          3.45470       -4.30960        1.61390
H          0.72700        0.97170       -0.68100
H          0.64640        0.21330        0.90600
H          0.63730       -0.80030       -0.55170
H          2.97570        0.01600       -1.08290
H          3.59940       -3.01870        3.19540
H          5.02860       -3.12710        2.15940
H          2.48860       -4.22510        1.55370
