14
6031	1
C          1.07000        0.01670        0.04270
C          2.56440        0.00040        0.04290
N          3.33350        1.10560        0.04200
N          4.59730        0.70120        0.04260
C          4.58810       -0.64700        0.04390
N          3.32580       -1.10810        0.04410
C          2.88940       -2.50010        0.04540
H          0.69720        1.06250        0.04170
H          0.69130       -0.50050        0.94860
H          0.69160       -0.50220       -0.86240
H          5.47540       -1.26670        0.04460
H          3.76580       -3.18280        0.04610
H          2.27950       -2.70170       -0.86010
H          2.27920       -2.70000        0.95100
