11
411	1
F          2.84280       -0.50930        1.22940
C          2.40140       -0.09360       -0.01480
C          2.95320        1.29500       -0.34430
F          2.46760        1.69360       -1.57770
F          2.51950        2.19390        0.61490
C          4.48290        1.30360       -0.38200
F          4.94980        0.43730       -1.35520
H          1.29140       -0.05910       -0.00480
H          2.72140       -0.83150       -0.78090
H          4.89820        1.00360        0.60350
H          4.84260        2.32800       -0.61580
