14
4900	1
F          0.83120        0.05580        0.02600
C          2.21440        0.02060        0.01290
C          2.91290        1.06130        0.89210
C          3.92230       -0.02760        1.27470
C          2.85870       -1.06120        0.88340
C          5.09680       -0.04320        0.32420
O          5.92810        0.84940        0.36670
H          2.66040        0.01340       -1.00820
H          2.26770        1.25960        1.78080
H          3.26720        2.00850        0.43160
H          4.28260       -0.04570        2.32610
H          2.20410       -1.23290        1.77080
H          3.16260       -2.02320        0.41780
H          5.21670       -0.84910       -0.39360
