9
5354	1
O          0.92590       -0.03630        0.28320
C          2.12460       -0.00920        0.07540
N          2.74140        1.17140       -0.19580
N          4.05440        1.20850       -0.42460
C          4.78850        0.06970       -0.38920
C          4.14070       -1.13060       -0.10990
O          2.83170       -1.13340        0.11330
H          5.85400        0.09720       -0.57440
H          4.69830       -2.05700       -0.07440
