13
4118	1
O          3.54070       -0.46880       -0.98090
C          2.54710       -0.09690       -0.06340
C          2.98660       -0.33610        1.38910
F          2.12100        0.06620        2.39290
C          3.98080       -1.41960        1.75510
C          4.41760        0.05730        1.69120
F          4.67430        0.47410        2.98560
H          3.16680       -0.28390       -1.88130
H          1.62850       -0.69670       -0.24480
H          2.31600        0.98480       -0.18130
H          4.10500       -2.07030        0.86420
H          3.64590       -1.84080        2.72730
H          5.25470        0.06180        0.96160
