14
2537	1
N          0.69450       -0.33710        0.18660
N          2.06790       -0.29880        0.13140
C          2.77380       -0.06350        1.18200
N          4.19280       -0.02950        1.09670
O          4.79520       -0.25130       -0.08420
C          4.96690        0.22250        2.26820
C          6.30390        0.25310        2.23330
H          0.15560       -0.52750       -0.66960
H          0.19200       -0.17810        1.07330
H          2.28640        0.11000        2.13920
H          4.87540        0.64350       -0.50470
H          4.46600        0.39470        3.21720
H          6.84850        0.08680        1.30970
H          6.86330        0.44740        3.14280
