14
4358	2
C          1.02530       -0.08280        0.02150
N          2.48180       -0.07520        0.02720
C          3.27710        1.01450        0.02790
C          4.59090        0.59380        0.03400
C          4.51200       -0.78380        0.03670
N          5.60560       -1.67650        0.04290
N          3.22370       -1.17150        0.03240
H          0.62740        0.95460        0.01770
H          0.65280       -0.60710        0.92620
H          0.65990       -0.61090       -0.88400
H          2.92750        2.03900        0.02440
H          5.48160        1.20780        0.03620
H          6.57070       -1.31630        0.04600
H          5.44310       -2.69360        0.04450
