17
1901	1
C          0.94580       -0.09330       -0.22330
O          2.36560       -0.08640       -0.14910
C          2.82540       -0.43170        1.16030
C          4.36150       -0.40190        1.20230
C          4.89330        1.00530        0.92050
C          4.84280       -0.88030        2.47690
C          5.23950       -1.27450        3.52750
H          0.65290        0.15850       -1.24560
H          0.52400        0.65430        0.45570
H          0.55350       -1.08600        0.01840
H          2.46360       -1.43820        1.40740
H          2.40620        0.27080        1.89230
H          4.73670       -1.05310        0.40240
H          4.53240        1.72580        1.66370
H          4.58220        1.35560       -0.06920
H          5.98900        1.02260        0.94890
H          5.59910       -1.62720        4.46680
