19
425	1
C          1.08770        0.02200       -0.00880
C          2.62680        0.03670        0.04540
C          3.14460        0.98110       -1.06610
C          3.07830        0.57700        1.42330
O          4.47850        0.62760        1.52100
C          3.11310       -1.40580       -0.09750
C          3.92250       -1.85010       -1.07080
H          0.67760        1.04670        0.12380
H          0.66960       -0.62310        0.79460
H          0.73570       -0.37060       -0.98750
H          2.75590        2.01160       -0.91520
H          2.80730        0.63520       -2.06710
H          4.25440        1.03390       -1.06230
H          2.65780       -0.04050        2.25200
H          2.68570        1.60530        1.57910
H          4.78030       -0.26670        1.82830
H          2.77860       -2.12480        0.64610
H          4.30330       -1.20300       -1.85100
H          4.21390       -2.89530       -1.08730
