12
4667	1
N          0.89970       -0.06560        0.09270
C          2.31040       -0.03100        0.04950
C          3.08620        1.09350       -0.11150
N          4.36450        0.69360       -0.09670
O          5.45710        1.48300       -0.22860
C          4.35720       -0.64270        0.06760
N          3.09690       -1.12270        0.16250
H          0.35510        0.80400        0.00010
H          0.40790       -0.96200        0.21720
H          2.75250        2.11630       -0.22970
H          5.69340        1.75050        0.69650
H          5.24680       -1.25670        0.11750
