12
36	1
C          1.07090       -0.03900        0.03150
C          2.59410        0.01160        0.06660
C          3.12070       -0.41750        1.43070
F          3.05470       -0.88960       -0.85260
C          3.07400        1.32790       -0.28280
N          3.45920        2.37630       -0.56110
H          0.71140       -1.04850        0.25940
H          0.69640        0.21150       -0.96800
H          0.62270        0.65930        0.74670
H          2.78460       -1.43120        1.67460
H          2.79110        0.25900        2.22680
H          4.21680       -0.43840        1.43500
