12
1480	1
C          3.28130        0.73000        1.07150
O          2.46280        0.09900        0.15730
C          2.87610       -0.91200       -0.64970
N          4.08640       -1.34680       -0.60320
N          4.49150       -2.36940       -1.42450
C          5.69850       -2.80200       -1.37720
H          2.70060        1.51450        1.59870
H          4.13890        1.20930        0.55230
H          3.65550       -0.00070        1.82040
H          2.16560       -1.35440       -1.34270
H          6.00710       -3.61030       -2.03080
H          6.41750       -2.36730       -0.68830
