11
1245	1
F          0.73960       -0.76950       -1.31180
C          2.08900       -0.85830       -1.18260
F          2.63750       -2.02070       -0.73890
C          2.85520        0.19560       -1.49350
C          4.36010        0.16830       -1.37280
C          5.04550        0.42250       -2.68790
O          4.40780        0.59790       -3.71550
H          2.37870        1.10690       -1.84390
H          4.71880       -0.80820       -0.98400
H          4.66660        0.95840       -0.65580
H          6.12950        0.44800       -2.72340
