12
5326	1
N          1.08450       -0.08070        0.07800
C          2.36170       -0.10130       -0.03190
N          3.06040        1.06640       -0.08690
C          4.41360        1.06520       -0.20330
C          5.10290       -0.14320       -0.26790
C          4.37580       -1.33050       -0.21060
N          3.02120       -1.29290       -0.09390
H          2.48730       -2.19090       -0.05200
H          0.56830        0.81050        0.12630
H          4.95280        2.00210       -0.24550
H          6.18110       -0.15970       -0.36070
H          4.89010       -2.28200       -0.25910
