17
1150	1
C          0.98140        0.10710       -0.09120
C          2.50880        0.07240       -0.06810
C          3.02950        0.53210        1.29290
C          2.99020       -1.25450       -0.37270
C          3.38690       -2.34810       -0.62370
C          3.85550       -3.64010       -0.92030
C          5.07580       -3.84390       -1.42690
H          0.61060        1.11520        0.12260
H          0.55260       -0.57580        0.65170
H          0.59710       -0.19040       -1.07360
H          2.87650        0.77360       -0.82730
H          2.69200       -0.13180        2.09760
H          2.68160        1.54500        1.52210
H          4.12530        0.54170        1.31090
H          3.19860       -4.48290       -0.72770
H          5.75470       -3.02110       -1.63000
H          5.42250       -4.84760       -1.65030
