8
1018	1
O          0.93190       -0.09460        0.00770
C          2.14910       -0.08100        0.01290
C          2.96300        1.02450        0.01330
N          4.23120        0.56710        0.02010
N          4.15560       -0.75800        0.02340
H          4.97920       -1.39900        0.02870
O          2.91230       -1.14100        0.01910
H          2.67340        2.06700        0.00920
