13
4955	1
C          1.42530        0.08530       -0.11800
N          2.53790        0.28320        0.49730
N          2.90960       -0.47400        1.58920
C          4.27460       -0.41790        2.07890
C          4.15440       -1.88860        2.06690
O          4.93060       -2.77410        2.38660
C          2.75620       -1.92290        1.59810
H          1.16700        0.70040       -0.97270
H          0.73200       -0.68330        0.21100
H          4.35100        0.00270        3.10370
H          4.99910       -0.00630        1.34320
H          2.04490       -2.28000        2.37230
H          2.62500       -2.37280        0.59030
