13
1363	1
C          0.51050       -0.62590       -0.22290
C          2.00910       -0.36720       -0.24160
O          2.27500        0.85590        0.34260
C          3.52470        1.37060        0.47630
N          4.55660        0.72870        0.05470
O          5.76080        1.24020        0.19140
H          0.29380       -1.60880       -0.69200
H         -0.02020        0.16840       -0.78960
H          0.13900       -0.63670        0.82390
H          2.36530       -0.36880       -1.29520
H          2.52480       -1.17580        0.32190
H          3.64560        2.34130        0.94860
H          6.53200        0.75270       -0.12750
