18
330	1
C          1.09920        0.12240        0.16190
C          2.58850       -0.19620       -0.03840
C          2.81320       -1.69850        0.21280
C          3.07560        0.30630       -1.40580
C          3.00340        1.78740       -1.69980
C          3.58430       -0.51580       -2.34730
H          0.76640       -0.21050        1.16840
H          0.48420       -0.39390       -0.60640
H          0.90950        1.21330        0.10350
H          3.16880        0.34660        0.73960
H          2.23590       -2.31490       -0.50960
H          2.48390       -1.96860        1.23910
H          3.89350       -1.94530        0.13340
H          3.59160        2.34310       -0.94000
H          1.95300        2.13990       -1.67590
H          3.41210        2.03960       -2.70200
H          3.67120       -1.58460       -2.20040
H          3.92600       -0.12120       -3.29940
