11
1432	1
C          1.00410        0.08010        0.03380
C          2.46710        0.08220        0.03480
C          3.67270        0.08360        0.03540
C          5.11360        0.08600        0.03650
C          5.79510       -0.96120       -0.43140
F          7.15340       -0.94550       -0.42440
H          0.63250        0.86680        0.72230
H          0.63540       -0.91050        0.37100
H          0.63450        0.28240       -0.99250
H          5.64430        0.95030        0.42260
H          5.27560       -1.83250       -0.82070
