12
4518	1
N          1.04660        0.07930        0.05650
C          2.45840        0.06160        0.05170
N          3.21910        1.17900        0.04690
C          4.49070        0.72690        0.04350
C          4.46380       -0.65030        0.04630
O          5.52920       -1.47290        0.04430
N          3.19110       -1.06780        0.05150
H          2.84520       -2.05320        0.05460
H          0.54000        0.97620        0.05650
H          0.51650       -0.80390        0.06010
H          5.36800        1.35990        0.03920
H          6.42990       -1.11970        0.04050
