21
164	1
C          1.78230       -0.91860       -0.13030
C          3.25420       -0.57070        0.12980
C          4.13360       -1.23840       -0.93910
C          3.42570        0.96770        0.15980
C          4.85400        1.43760        0.51490
C          4.94490        2.96730        0.53600
O          5.26780        0.90910        1.75030
H          1.63810       -2.02020       -0.11580
H          1.45360       -0.52850       -1.11780
H          1.13700       -0.47870        0.66000
H          3.52890       -0.98650        1.12420
H          3.89080       -0.84400       -1.94920
H          3.96770       -2.33690       -0.93630
H          5.21020       -1.07310       -0.73450
H          2.72880        1.38130        0.92260
H          3.13790        1.38930       -0.82910
H          5.56090        1.08710       -0.26490
H          4.26460        3.39000        1.30590
H          4.66590        3.38260       -0.45590
H          5.98500        3.27960        0.76890
H          4.64010        1.23960        2.44560
