14
3663	2
C          0.89650       -0.53890        0.41470
C          2.37110       -0.16880        0.25310
C          2.58290        1.14080       -0.47330
O          1.62390        1.79040       -0.86650
C          3.96030        1.64210       -0.71130
N          4.17050        2.81290       -1.36020
O          4.91740        0.99180       -0.31780
H          0.81270       -1.50620        0.95350
H          0.41370       -0.64440       -0.58040
H          0.36480        0.24070        1.00100
H          2.87940       -0.97880       -0.31300
H          2.83070       -0.09720        1.26230
H          3.38100        3.37990       -1.70190
H          5.13060        3.15240       -1.52050
