14
5195	2
O          0.89380        0.03070       -0.06750
C          2.11500       -0.01060       -0.06820
C          2.79170       -1.35370       -0.06570
C          4.28860       -1.28230       -0.06690
C          4.95660       -0.12560       -0.06990
C          4.27190        1.21390       -0.07230
N          2.82140        1.15070       -0.07120
H          2.46890       -1.91640       -0.96730
H          2.47010       -1.91240        0.83870
H          4.84920       -2.21230       -0.06520
H          6.04230       -0.14790       -0.07050
H          4.60210        1.76960       -0.97520
H          4.60330        1.77360        0.82770
H          2.30460        2.04370       -0.07280
