12
582	1
C          1.03140       -0.07020        0.08870
C          2.56170        0.00170        0.17650
C          2.97970        1.43160        0.42410
O          3.64120        1.74230        1.40370
C          3.11750       -0.93100        1.23230
O          2.38280       -1.61460        1.92950
H          0.66150        0.59280       -0.72290
H          0.56720        0.24750        1.04770
H          0.70870       -1.10800       -0.14210
H          2.98020       -0.31410       -0.80320
H          2.68690        2.20110       -0.28330
H          4.19210       -0.99680        1.37110
