15
49	1
C          3.41790       -0.25600       -1.56030
C          2.77360       -0.35820       -0.17590
F          1.39800       -0.36390       -0.33010
F          3.15330       -1.55030        0.41830
C          3.16050        0.82070        0.73110
C          4.64200        0.85830        1.01000
C          5.39210        1.91220        0.67450
H          3.09460       -1.11370       -2.18730
H          4.52550       -0.27810       -1.48420
H          3.10800        0.68600       -2.06100
H          2.63240        0.71430        1.70270
H          2.81640        1.76840        0.25990
H          5.11040        0.00790        1.49670
H          4.95470        2.77810        0.18690
H          6.45580        1.90960        0.88880
