12
4591	1
N          1.06860       -0.07240        0.01380
C          2.48010       -0.06110        0.01990
C          3.27360        1.06680        0.02250
C          4.56320        0.58740        0.02850
O          5.69200        1.32010        0.03290
C          4.49140       -0.78930        0.02930
O          3.22460       -1.14620        0.02400
H          0.54070        0.81230        0.01080
H          0.55990       -0.96790        0.01230
H          2.95320        2.10050        0.02030
H          5.65700        2.28700        0.03200
H          5.32550       -1.47840        0.03340
