16
1949	1
C          1.21800       -0.54640       -0.15140
C          2.73700       -0.40870       -0.20020
C          3.22410        0.69800        0.74670
C          4.72460        0.87100        0.73310
O          5.42890        0.17070        0.01980
C          5.36000        1.90960        1.60790
F          4.88430        3.16280        1.26920
H          0.89470       -1.35180       -0.84400
H          0.73390        0.40430       -0.46090
H          0.88670       -0.80710        0.87640
H          3.04100       -0.16890       -1.24270
H          3.19360       -1.37920        0.09330
H          2.90910        0.45340        1.78440
H          2.75550        1.66140        0.45020
H          6.46440        1.90050        1.48710
H          5.11740        1.70010        2.67070
