11
4551	1
C          0.95530       -0.08880        0.01290
C          2.44600       -0.09070        0.00870
N          3.20410        1.02760        0.00540
C          4.47080        0.57080        0.00230
C          4.43290       -0.80260        0.00370
F          5.49680       -1.64150        0.00140
O          3.18050       -1.18060        0.00760
H          0.57080        0.95290        0.01300
H          0.58700       -0.61180        0.91960
H          0.58180       -0.61350       -0.89080
H          5.35230        1.19760       -0.00080
