15
1665	1
N          0.93000        0.01320       -0.16930
C          2.38080        0.12910        0.00020
C          3.10880       -0.92730       -0.85140
C          3.18170        0.54930       -1.22030
C          4.45540        1.31890       -0.85070
O          4.14210        2.65160       -0.55110
H          0.60870       -0.87090        0.28700
H          0.64150       -0.00830       -1.17460
H          2.78630        0.03500        1.03050
H          2.58800       -1.41720       -1.70210
H          4.12810       -1.25170       -0.55140
H          2.53820        0.91000       -2.05180
H          5.17940        1.27210       -1.69520
H          4.96790        0.87240        0.02980
H          3.99610        3.11340       -1.41760
