12
1645	1
F          0.82780       -1.40100        0.04420
C          2.15690       -1.66120       -0.06040
C          3.03960       -0.90930        0.60300
C          4.52010       -1.17960        0.51170
C          5.14870       -1.19300       -0.81390
N          5.24360        0.01690        0.01630
H          2.49020       -2.48440       -0.68530
H          2.68750       -0.09510        1.22930
H          5.06230       -1.52930        1.41470
H          4.51320       -1.01780       -1.71150
H          6.13700       -1.69440       -0.86850
H          4.58390        0.72300       -0.38920
