16
2420	1
C          0.62580       -0.35860        0.06540
C          2.06310        0.05970       -0.03270
C          3.04890       -0.69710        0.47850
C          4.50470       -0.30050        0.39440
F          4.67860        0.89380       -0.28810
C          5.11090       -0.17530        1.79450
O          4.45150        0.81220        2.54170
H          0.20320       -0.45610       -0.95610
H          0.05690        0.41650        0.61960
H          0.50760       -1.32980        0.59230
H          2.28900        0.99750       -0.53050
H          2.80440       -1.63310        0.97390
H          5.04790       -1.09530       -0.15960
H          6.19870        0.05470        1.72430
H          5.02390       -1.14400        2.33190
H          4.82240        1.68610        2.25160
