15
3721	1
C          3.07340        0.23910        1.37180
C          2.36040        0.27320        0.04920
O          1.14270        0.15800        0.04100
C          3.10630        0.44390       -1.24200
C          2.41010        0.46740       -2.40020
C          4.60340        0.58390       -1.21440
C          5.38130        0.74270       -2.29640
H          2.34920        0.10610        2.20410
H          3.61740        1.19330        1.53280
H          3.78890       -0.60940        1.39390
H          1.32940        0.36500       -2.40280
H          2.88260        0.58680       -3.36420
H          5.10830        0.55660       -0.25560
H          4.99190        0.78490       -3.30350
H          6.45530        0.83480       -2.16930
