14
5027	1
C          0.85730        0.03700       -0.20120
C          2.34580       -0.14600       -0.24800
F          2.86940       -1.34000        0.14160
C          3.15440        0.84420       -0.66070
C          4.64500        0.67400       -0.70580
C          5.19740       -0.41140       -1.56260
O          5.07610        0.90520       -2.02740
H          0.50320       -0.11040        0.84010
H          0.37550       -0.71750       -0.85720
H          0.54860        1.04930       -0.54020
H          2.73530        1.80040       -0.96150
H          5.29100        1.28850       -0.04520
H          4.48780       -1.06220       -2.11590
H          6.27030       -0.65890       -1.42580
