12
2803	1
C          1.03260       -0.17440        0.24700
C          2.52960       -0.26420        0.38690
O          3.38120        0.55850       -0.29620
C          3.06760        1.55020       -1.17460
O          1.91160        1.82090       -1.45800
N          3.01720       -1.15100        1.18120
O          4.31810       -1.27310        1.34120
H          0.73820       -0.36570       -0.80600
H          0.68180        0.82980        0.56370
H          0.53000       -0.93130        0.88700
H          3.86980        2.11560       -1.63540
H          4.67040       -1.94380        1.94130
