20
190	1
C          3.08900        2.09960       -1.18640
C          3.14090        1.20770        0.06500
N          1.80660        0.68760        0.37030
C          4.11780        0.02800       -0.11730
C          5.54840        0.46630       -0.36750
C          6.28670        1.25280        0.68650
C          6.16210        0.14100       -1.51730
H          2.37750        2.93810       -1.02790
H          2.75780        1.51340       -2.07080
H          4.08760        2.53570       -1.40000
H          3.47260        1.82510        0.92730
H          1.43960        0.13330       -0.43800
H          1.15090        1.48260        0.55070
H          3.74970       -0.60360       -0.95670
H          4.10640       -0.60000        0.79970
H          5.76910        2.21320        0.88390
H          7.32860        1.48660        0.37850
H          6.32770        0.66210        1.62550
H          5.64470       -0.42850       -2.28330
H          7.18740        0.44330       -1.70740
