10
5514	1
O          1.01630       -0.09220       -0.06830
C          2.35110       -0.10810        0.10030
N          3.06110        1.05060        0.07210
C          4.40700        1.03330        0.24230
C          5.05400       -0.18230        0.44620
N          4.31860       -1.32290        0.46940
N          2.99540       -1.28790        0.30030
H          0.54170        0.73870       -0.21170
H          4.96950        1.95710        0.21930
H          6.12620       -0.22100        0.58430
