9
756	1
C          0.97790       -0.06260       -0.04990
C          2.30860       -0.07010        0.12380
C          3.02160       -1.04240        0.98250
O          4.23530       -0.96800        1.08140
C          2.32660       -2.07540        1.70470
N          1.77500       -2.90780        2.28780
H          0.52450        0.68530       -0.69830
H          0.32270       -0.78060        0.43560
H          2.90080        0.67760       -0.39240
