15
2049	1
C          2.55070        1.94520        1.50060
O          3.12220        0.95730        0.68000
N          3.46110       -0.06460        1.48860
C          4.82000       -0.29570        1.85260
N          5.75370        0.48750        1.43520
N          5.14370       -1.40610        2.68460
N          6.45680       -1.67420        3.05740
H          2.31470        2.82960        0.87380
H          3.26430        2.27950        2.28720
H          1.59650        1.58550        1.94630
H          2.73210       -0.72140        1.80730
H          5.55590        1.29870        0.83190
H          4.39250       -2.02710        3.01830
H          6.83020       -0.84640        3.57580
H          7.02220       -1.82830        2.19140
