18
3532	1
C          0.89730        0.08350       -0.24640
N          2.33500       -0.05960       -0.06580
C          3.23020        0.85570       -0.76040
C          2.86940       -1.08400        0.80520
N          2.08920       -1.88490        1.44970
C          4.36050       -1.23990        1.01120
N          5.02470       -1.59700       -0.23720
H          0.64040        0.91150       -0.93940
H          0.41370        0.30350        0.72840
H          0.47560       -0.85070       -0.67330
H          2.67790        1.60090       -1.37000
H          3.88960        0.29740       -1.45440
H          3.84510        1.41610       -0.02580
H          1.06380       -1.85310        1.38160
H          4.56300       -2.03540        1.76400
H          4.78010       -0.29030        1.40570
H          4.67390       -2.52770       -0.55840
H          6.05040       -1.68360       -0.05630
