9
260	1
O          0.86110       -0.00640        0.01080
N          2.18760        0.12530        0.14730
C          2.93040        0.85800       -0.81000
N          4.19980        0.99150       -0.67420
O          4.89630        1.67080       -1.55960
H          0.73830       -0.86700       -0.46590
H          2.66150       -0.29680        0.96000
H          2.42090        1.30620       -1.65950
H          5.85190        1.76770       -1.45180
