16
2190	1
N          3.07830       -0.11320        1.15300
C          2.41190        0.05070       -0.13490
C          2.65960       -1.15610       -1.00600
C          1.61160       -1.89160       -1.43330
O          3.95500       -1.44680       -1.32980
C          4.41350       -2.49050       -2.06910
C          5.72050       -2.60710       -2.29870
H          2.88050        0.73060        1.73820
H          4.11310       -0.15710        1.00530
H          2.80450        0.95530       -0.64930
H          1.32490        0.20690        0.04440
H          0.59850       -1.62060       -1.15170
H          1.72570       -2.76260       -2.06180
H          3.74970       -3.23960       -2.48100
H          6.41670       -1.87510       -1.90090
H          6.09830       -3.43720       -2.88690
