14
2031	2
C          2.49520        0.87080        0.44440
O          2.61460       -0.52150        0.59540
N          3.04780       -0.99960       -0.58620
C          4.41210       -1.36690       -0.77640
N          5.27260       -1.22650        0.17070
C          4.85210       -1.92200       -2.09760
F          4.15200       -3.08250       -2.37040
H          2.16070        1.30210        1.41010
H          1.72580        1.12360       -0.31850
H          3.47690        1.33330        0.19760
H          2.37140       -1.14660       -1.35150
H          5.01080       -0.84870        1.09250
H          5.93930       -2.15170       -2.08980
H          4.65220       -1.17740       -2.89620
