13
459	1
O          2.80990       -1.22880        0.24530
C          2.28900       -0.03260       -0.26680
C          2.96710        1.16840        0.39670
F          2.38270        2.32750       -0.09020
F          2.75600        1.11540        1.76330
C          4.45670        1.15110        0.13480
C          5.09080        2.14070       -0.50520
H          2.33140       -1.96040       -0.22430
H          1.19730        0.01630       -0.05520
H          2.45630        0.01490       -1.36680
H          5.03650        0.30070        0.48240
H          4.55920        3.01240       -0.87210
H          6.16220        2.07840       -0.66610
