15
2155	2
C          1.14490       -0.07310       -0.70770
N          2.41930        0.14560       -0.05840
C          3.46620       -0.83800       -0.04910
N          3.35910       -1.91680       -0.74770
N          4.69460       -0.60560        0.65000
C          4.89040        0.31010        1.73160
N          3.92800        0.71900        2.48270
H          0.50510        0.82800       -0.59550
H          0.62540       -0.93610       -0.24040
H          1.29260       -0.25860       -1.79240
H          2.58230        1.06910        0.36420
H          2.52540       -2.14500       -1.30530
H          5.51860       -1.14870        0.35100
H          5.90480        0.58180        2.00430
H          2.95150        0.42620        2.35770
