17
2024	2
C          0.91640        0.09760        0.83560
C          2.32210        0.07140        0.23590
C          3.01680        1.41250        0.28110
O          2.44300        2.38610        0.75140
N          4.28840        1.52320       -0.19940
N          4.99450        2.73170       -0.19000
C          6.16430        2.57910        0.67110
H          0.46570       -0.91520        0.77230
H          0.27060        0.80970        0.27880
H          0.96050        0.39920        1.90420
H          2.25480       -0.26070       -0.82260
H          2.93290       -0.66520        0.80080
H          4.74760        0.68380       -0.58610
H          4.41510        3.51700        0.18680
H          6.82090        1.76710        0.29120
H          5.85070        2.34570        1.71270
H          6.74640        3.52460        0.67740
