15
3568	1
C          1.41700        0.31760       -1.40410
N          2.78010       -0.12700       -1.59980
C          3.66720       -0.18710       -0.56520
O          3.31060        0.14080        0.56030
N          4.95070       -0.61050       -0.77460
C          5.89680       -0.68290        0.32180
O          5.35130       -0.97600       -2.00390
H          0.86810        0.29060       -2.36930
H          1.40850        1.35970       -1.01940
H          0.89950       -0.34940       -0.68210
H          3.07160       -0.40130       -2.54970
H          6.03980        0.32480        0.76700
H          6.88040       -1.05070       -0.04060
H          5.52400       -1.38270        1.09990
H          5.73780       -0.15480       -2.40450
