12
4289	2
N          1.13510       -0.04590        0.34200
C          2.35810        0.05710       -0.03240
C          3.13330        1.34230       -0.17460
N          4.40970        0.79780       -0.61610
C          4.35280       -0.54650       -0.70310
O          5.29540       -1.23990       -1.05180
N          3.16090       -1.03980       -0.36880
H          0.58630        0.79330        0.57900
H          3.23860        1.87010        0.79660
H          2.69310        2.00600       -0.94830
H          5.24450        1.36180       -0.83320
H          2.88920       -2.03410       -0.36130
