15
669	2
N          1.14050       -0.30390       -0.01800
C          2.49020       -0.36690       -0.08340
O          3.02510       -1.36790       -0.53710
C          3.31810        0.80780        0.38970
C          4.84250        0.62010        0.27550
C          5.39720       -0.45740        1.21340
F          5.12040       -0.13760        2.53070
H          0.56450       -1.09500       -0.34230
H          0.67370        0.53520        0.35650
H          3.05980        1.03730        1.44600
H          3.03190        1.68390       -0.23120
H          5.33080        1.58200        0.54450
H          5.11250        0.38190       -0.77630
H          6.49880       -0.51700        1.08780
H          4.97430       -1.45600        0.98610
