16
2519	1
C          1.27120        0.15480       -0.61780
N          2.54020        0.01080        0.08760
C          3.04610        1.06470        0.91900
C          2.40230        2.22760        1.10060
C          3.31690       -1.18570       -0.02920
N          2.91920       -2.16970       -0.75980
N          3.66180       -3.32130       -0.87530
H          0.45030        0.31370        0.11320
H          1.01090       -0.73950       -1.21990
H          1.32320        1.01960       -1.31280
H          3.99490        0.92600        1.43110
H          1.45240        2.44250        0.62550
H          2.83810        2.98620        1.74280
H          4.25940       -1.26360        0.50910
H          3.31880       -4.09110       -1.46640
H          4.55970       -3.42880       -0.37890
