19
69	1
C          1.48720       -1.74580        2.39620
N          2.89870       -1.82740        2.02050
C          3.44570       -0.49140        1.75400
C          4.93490       -0.57400        1.36380
C          5.47140        0.82380        1.03180
C          5.77150       -1.20360        2.48690
H          1.10350       -2.76610        2.60690
H          0.88410       -1.30510        1.57190
H          1.36500       -1.13480        3.31640
H          2.97270       -2.40810        1.15210
H          3.33980        0.14680        2.66050
H          2.87910       -0.01660        0.92040
H          5.03200       -1.20590        0.45320
H          5.39800        1.49400        1.91550
H          4.89040        1.26980        0.19640
H          6.53510        0.76240        0.71740
H          5.70490       -0.59530        3.41450
H          6.83670       -1.26980        2.17850
H          5.41750       -2.23250        2.70810
