11
4401	1
C          1.06400       -0.11950        0.00400
C          2.37960       -0.06110        0.21270
O          3.14970       -1.14080        0.47640
C          4.41450       -0.69610        0.62990
O          5.36210       -1.42270        0.88020
C          4.48270        0.74910        0.45810
C          3.19740        1.15300        0.19380
H          0.54760       -1.07320        0.04010
H          0.49990        0.78470       -0.20270
H          5.35460        1.38640        0.52210
H          2.87310        2.16910        0.01150
