14
2611	2
C          1.02020        0.67260        0.02810
N          2.40900        0.42810        0.34980
C          3.14260        1.23190        1.28310
N          2.59120        2.22530        1.89140
C          4.56200        0.93260        1.56800
N          5.15770       -0.04550        0.98690
O          6.42120       -0.30440        1.24590
H          0.66830       -0.07390       -0.71520
H          0.90420        1.68650       -0.40980
H          0.39600        0.58030        0.94190
H          2.88230       -0.35950       -0.11740
H          1.60890        2.49390        1.74460
H          5.10450        1.55180        2.27900
H          6.86380       -1.04160        0.80460
