14
5053	1
F          0.99430        0.01350       -0.07590
C          2.37930        0.00900       -0.09900
C          2.87560       -1.37170       -0.52050
O          2.43120       -1.66360       -1.83040
C          2.94040       -0.68740       -2.72480
O          2.42860        0.60270       -2.43200
C          2.87290        0.99980       -1.15010
H          2.75750        0.27740        0.91050
H          2.47110       -2.13290        0.17940
H          3.98680       -1.43610       -0.46450
H          2.60250       -0.95890       -3.74590
H          4.05500       -0.69820       -2.77030
H          2.46640        2.00710       -0.91960
H          3.98390        1.08600       -1.13390
