15
1434	1
C          0.91680       -0.09260        0.14060
C          2.44820       -0.08290        0.16100
O          2.94060       -0.10790        1.47560
C          3.03060        1.05860       -0.62910
C          3.78990        0.59500       -1.67940
C          3.78320       -0.77390       -1.67690
C          3.01920       -1.22740       -0.62480
H          0.52150        0.80640        0.65980
H          0.53530       -0.99850        0.65810
H          0.53780       -0.09250       -0.90450
H          2.69610        0.75650        1.89950
H          2.87990        2.10770       -0.41010
H          4.31010        1.22390       -2.38940
H          4.29740       -1.41000       -2.38490
H          2.85900       -2.27470       -0.40330
