22
126	1
C          2.91830        1.37720       -0.17270
N          2.49570       -0.03300       -0.03320
C          1.03010       -0.07500        0.15920
C          3.02730       -0.96520       -1.09020
C          2.59670       -2.42350       -0.79260
C          2.54390       -0.59280       -2.51390
C          4.57630       -0.96030       -1.07960
H          2.55460        1.97420        0.69160
H          2.51340        1.83820       -1.09770
H          4.01880        1.48120       -0.14250
H          0.73050        0.59770        0.99200
H          0.68960       -1.07920        0.47550
H          0.48600        0.24770       -0.75260
H          1.50060       -2.56370       -0.88080
H          2.91900       -2.72360        0.22770
H          3.05380       -3.12680       -1.52260
H          1.43890       -0.63680       -2.59400
H          2.95630       -1.30530       -3.26100
H          2.88370        0.42080       -2.80850
H          4.95830       -1.21560       -0.06770
H          4.99750        0.01740       -1.38670
H          4.97790       -1.70520       -1.80100
