12
6057	1
N          0.88040        0.06240        0.17350
C          2.29230        0.02080        0.12390
C          3.14990        1.08900        0.02500
N          4.40700        0.58880        0.01080
N          4.31160       -0.73460        0.09810
N          3.03870       -1.08930        0.16610
N          2.57940       -2.41260        0.26970
H          0.38750        0.96590        0.13040
H          0.33540       -0.80780        0.25160
H          2.89630        2.13910       -0.03130
H          3.40410       -3.05560        0.26380
H          2.00030       -2.61960       -0.57560
