8
230	2
O          1.09520       -0.09450        0.24440
C          2.31590       -0.09040        0.22310
N          2.97420        0.16070       -0.93480
C          4.32880        0.17000       -0.98000
O          4.90440        0.39810       -2.03210
H          2.86310       -0.28980        1.14090
H          2.43560        0.34770       -1.79550
H          4.91540       -0.02440       -0.08570
