13
1722	1
C          1.06530       -0.04950       -0.13190
C          2.58110        0.11950        0.00440
N          3.38650       -0.68950       -0.92820
C          3.26050        0.78050       -1.10500
C          4.53090        1.42670       -0.76140
C          5.57570        1.95530       -0.47440
H          0.74180       -0.93450        0.45430
H          0.73970       -0.17750       -1.18690
H          0.56670        0.85210        0.28030
H          3.05150        0.18600        1.00960
H          2.76620       -1.15320       -1.63270
H          2.77690        1.00200       -2.08280
H          6.49270        2.42030       -0.22430
