17
2054	1
C          0.78350       -0.30300       -0.09170
C          2.28640       -0.08290        0.05620
N          3.03590       -1.08790       -0.67570
C          4.46400       -1.11800       -0.70820
N          5.16930       -0.23830       -0.07760
O          5.07740       -2.09920       -1.42190
C          6.44710       -2.23070       -1.52740
H          0.23380        0.47700        0.47610
H          0.50180       -1.30100        0.30660
H          0.49090       -0.24010       -1.16140
H          2.54820       -0.13590        1.13520
H          2.53730        0.92680       -0.33530
H          2.52600       -1.81670       -1.19860
H          4.75060        0.52180        0.47490
H          6.67980       -3.10890       -2.16390
H          6.89600       -2.38910       -0.52340
H          6.88480       -1.32390       -1.99720
