9
5783	1
O          1.25910        0.30660       -0.37210
N          2.59290        0.17070       -0.18090
O          3.45900        1.13420       -0.14950
N          4.66360        0.66850        0.04900
N          4.59600       -0.65690        0.15250
C          3.29250       -0.95030        0.00550
N          2.79520       -2.13000        0.03860
H          0.88610        0.45240        0.53460
H          3.39920       -2.95170        0.18700
