13
2084	1
F          2.92200       -1.02140        0.56710
C          2.22480       -0.04530       -0.12290
C          2.56810        1.29950        0.45860
C          1.60570        2.10520        0.95290
C          4.01620        1.72510        0.49890
C          4.58280        1.80670       -0.85310
N          5.02810        1.87400       -1.92280
H          1.14210       -0.26930       -0.05810
H          2.52930       -0.08180       -1.19040
H          0.56150        1.80900        0.93410
H          1.84800        3.07480        1.38390
H          4.58620        0.94900        1.07240
H          4.15480        2.68920        1.00540
