14
1778	1
N          0.75300       -0.41730        0.15530
N          2.06020       -0.19820       -0.26810
C          3.02620        0.39350        0.65300
C          3.47790        1.78070        0.18960
F          2.38740        2.62750        0.10380
C          2.40780       -0.56760       -1.53170
O          3.55170       -0.43010       -1.93840
H          0.33750        0.50270        0.42880
H          0.77590       -1.04790        0.98890
H          3.90090       -0.28330        0.76740
H          2.56250        0.51700        1.65640
H          3.98330        1.73890       -0.79550
H          4.19640        2.19730        0.92680
H          1.66420       -1.00880       -2.18840
