9
1087	2
F          0.92830       -0.04870       -0.08930
C          2.28300       -0.06780       -0.08210
C          3.10910        1.02930       -0.07980
N          4.37700        0.59100       -0.07230
H          5.24340        1.17330       -0.06890
C          4.30330       -0.75460       -0.07020
N          3.02540       -1.19080       -0.07610
H          2.81290        2.07000       -0.08330
H          5.16520       -1.40870       -0.06440
