14
6130	2
C          0.94550       -0.00820        0.02900
C          2.43720       -0.07080        0.02510
N          3.25010        1.00020        0.01990
N          4.49110        0.53410        0.01780
H          5.34410        1.13530        0.01380
N          4.51260       -0.79130        0.02140
C          3.23060       -1.19660        0.02600
C          2.78770       -2.62240        0.03120
H          0.60600        1.04890        0.02700
H          0.55330       -0.51220        0.93680
H          0.54840       -0.51710       -0.87390
H          3.66900       -3.29770        0.03060
H          2.17560       -2.82620       -0.87190
H          2.18060       -2.82120        0.93880
