11
4646	1
F          0.81270        0.04580        0.04620
C          2.19490        0.05050        0.06720
C          2.73860        1.21030       -0.71650
C          3.48170        0.76590       -1.77990
C          3.46700       -0.67380       -1.75930
F          4.09030       -1.48100       -2.65600
C          2.74850       -1.10050       -0.73160
H          2.57400        0.04630        1.11060
H          2.57370        2.25400       -0.48370
H          3.98380        1.39620       -2.50150
H          2.58510       -2.14520       -0.50170
