16
223	1
C          0.85310        0.01980        0.05630
C          2.37980        0.04940       -0.05040
C          3.01800        0.12850        1.33870
C          2.86510       -1.18210       -0.76540
N          3.51480       -1.07490       -1.87130
N          3.96870       -2.18510       -2.54360
H          0.48720        0.93590        0.56730
H          0.51430       -0.86930        0.63110
H          0.40070       -0.01640       -0.95800
H          2.67410        0.95690       -0.62420
H          2.74260       -0.75750        1.95100
H          2.67760        1.04590        1.86480
H          4.12470        0.17060        1.24790
H          2.66150       -2.16190       -0.33860
H          4.48570       -2.06980       -3.42640
H          3.80030       -3.13500       -2.17850
