15
1437	1
C          0.96200       -0.00020        0.15910
C          2.49390       -0.00080        0.17820
C          3.04020        0.00170        1.60960
C          3.06710        1.12670       -0.64440
N          3.74980        0.67600       -1.62200
N          3.74930       -0.68500       -1.61950
C          3.06630       -1.13170       -0.64030
H          0.57110        0.90390        0.67330
H          0.57050       -0.90220        0.67670
H          0.58200       -0.00210       -0.88570
H          2.69120        0.90590        2.15300
H          4.15190        0.00130        1.60600
H          2.69050       -0.90020        2.15640
H          2.93370        2.18360       -0.45470
H          2.93210       -2.18780       -0.44660
