19
878	1
C          1.70130       -0.72120        0.38530
C          3.17270       -0.45920        0.36300
N          3.70960        0.29680        1.25520
N          5.06260        0.55380        1.25730
C          5.63360        1.41750        2.27250
C          5.39640        0.82440        3.66550
C          7.13460        1.61210        2.02860
H          1.25050       -0.36950       -0.56570
H          1.21460       -0.19170        1.23250
H          1.52330       -1.81130        0.49220
H          3.77970       -0.91530       -0.41480
H          5.66790        0.14700        0.52520
H          5.14010        2.41260        2.21610
H          5.87590       -0.17450        3.75000
H          4.30800        0.71530        3.85800
H          5.81840        1.49400        4.44510
H          7.66850        0.63850        2.07570
H          7.56350        2.29470        2.79310
H          7.30000        2.06290        1.02690
