11
1752	1
O          2.26290       -1.38300       -0.33620
C          2.11670       -0.05210       -0.16860
O          1.19420        0.37650        0.51120
C          3.11080        0.88250       -0.82110
C          2.45440        1.82690       -1.73580
N          3.05350        2.31560       -0.47510
H          1.64950       -2.00980        0.07390
H          4.04600        0.50580       -1.28630
H          1.36020        2.03280       -1.69100
H          3.06150        2.25660       -2.56030
H          2.29570        2.48740        0.22410
