15
5565	1
O          1.05240        0.07290        0.12560
C          2.44910        0.11960        0.02330
C          3.02400        1.22180        0.92380
C          4.42470        0.71730        1.23550
C          4.19990       -0.76090        1.56480
C          3.08720       -1.08430        0.62860
O          2.74220       -2.22710        0.37210
H          0.71230        0.86020       -0.37410
H          2.77800        0.17320       -1.03940
H          2.46630        1.22970        1.88960
H          2.97140        2.23840        0.47990
H          4.96770        1.27690        2.02620
H          5.01120        0.78550        0.28960
H          3.83570       -0.92630        2.60170
H          5.13570       -1.32990        1.37860
