22
179	1
C          2.64580        1.17590       -1.55870
C          3.73720        1.00990       -0.49350
C          3.29080        1.66460        0.82110
C          4.05220       -0.49130       -0.29030
N          5.08660       -0.73080        0.74250
C          5.14400       -2.16520        1.06810
C          6.41930       -0.27420        0.30890
H          2.43590        2.25340       -1.72940
H          1.70520        0.67560       -1.24200
H          2.97910        0.73280       -2.52140
H          4.63900        1.53900       -0.86490
H          2.37540        1.17240        1.21440
H          3.07530        2.74220        0.65830
H          4.09310        1.58990        1.58500
H          4.36220       -0.94710       -1.25860
H          3.10350       -0.98550        0.02160
H          4.16080       -2.51320        1.45170
H          5.88730       -2.34880        1.87370
H          5.41930       -2.77070        0.17550
H          6.44050        0.82660        0.18790
H          6.72220       -0.75860       -0.64570
H          7.17850       -0.50870        1.08610
