8
389	1
O          1.10470       -0.23570       -0.16820
C          2.39300        0.10690        0.05350
O          2.95900        0.84730       -0.73460
C          3.12400       -0.40130        1.23350
O          4.41090       -0.04390        1.43220
O          2.56780       -1.14330        2.02930
H          0.62090       -0.81980        0.43220
H          4.90720       -0.36550        2.19830
