17
6414	1
C          0.99550       -0.19430        0.40290
C          2.51400       -0.25160        0.33800
O          3.03910        0.97450        0.79760
C          4.44880        0.89460        0.81780
C          5.03030        2.20800        1.29060
O          5.35700        1.68520        2.55470
C          4.97090        0.39530        2.14880
H          0.56680       -1.15240        0.04010
H          0.61810        0.63330       -0.23470
H          0.66570       -0.02580        1.45010
H          2.80590       -0.42900       -0.72210
H          2.84820       -1.09930        0.97920
H          4.93700        0.52970       -0.11560
H          4.28650        3.03280        1.35700
H          5.97030        2.47170        0.75520
H          4.18230       -0.02370        2.81190
H          5.87500       -0.24300        2.03200
