14
2888	1
C          4.54640       -0.00220        0.86700
O          3.43980       -0.34780        0.11880
C          3.41280       -1.18460       -0.95890
C          4.49760       -1.81480       -1.46490
F          5.73250       -1.65430       -0.92010
C          4.36840       -2.72040       -2.66040
O          4.76640       -4.02030       -2.32060
H          4.23260        0.69430        1.67130
H          5.29570        0.51690        0.23240
H          4.98870       -0.90340        1.34250
H          2.44970       -1.34740       -1.43310
H          4.98900       -2.32850       -3.49780
H          3.32340       -2.76470       -3.03570
H          5.75810       -4.03910       -2.36860
