17
2426	1
C          0.87240        0.12610        0.00010
C          2.39910        0.07480       -0.13260
C          2.85710       -1.18150       -0.89520
N          2.44990       -2.39830       -0.19730
C          2.87850        1.30340       -0.85780
N          3.67810        2.12590       -0.28040
O          4.09880        3.20000       -0.91260
H          0.49950       -0.75750        0.55970
H          0.39020        0.14440       -1.00120
H          0.56960        1.03760        0.55910
H          2.84170        0.05400        0.88900
H          3.96640       -1.17270       -0.99320
H          2.41810       -1.18320       -1.91770
H          2.92610       -2.43530        0.73340
H          2.77290       -3.22320       -0.75250
H          2.54420        1.49130       -1.87590
H          4.70100        3.81490       -0.47270
