13
2783	2
C          0.81010       -0.20170       -0.10660
C          2.30870       -0.17870        0.09730
N          3.09780        0.93980       -0.33250
C          2.56020        2.02990       -0.93920
O          3.28110        2.95300       -1.28390
C          2.90610       -1.22740        0.69230
F          4.25070       -1.24590        0.89420
H          0.57930       -0.13130       -1.19010
H          0.34720        0.65420        0.42760
H          0.34680       -1.13490        0.28000
H          4.11810        0.92310       -0.17790
H          1.49510        2.10210       -1.12720
H          2.32320       -2.08160        1.02340
