17
1455	1
C          1.07820        0.02730       -0.05330
C          2.60980       -0.00560        0.03460
C          3.39950       -0.71160       -1.09840
F          2.53830       -1.23500       -2.04920
C          3.40690        0.81660       -0.96080
C          2.76200        1.61370       -2.10300
N          4.69200        1.33380       -0.48180
H          0.67210       -0.83120        0.52040
H          0.67720       -0.04090       -1.08290
H          0.70880        0.96550        0.41000
H          3.07970        0.03040        1.04150
H          4.07590       -1.41350       -0.56610
H          1.85080        1.14040       -2.51630
H          3.49230        1.71550       -2.93270
H          2.49770        2.62740       -1.73670
H          5.14070        0.69800        0.21820
H          4.52170        2.25440       -0.01700
