19
1265	1
C          0.82330        0.40980        0.99280
C          2.31690        0.35080        0.85960
C          3.06780        1.46310        0.85910
C          4.54580        1.36530        0.72510
C          5.40390        2.41730        0.71190
C          4.97760        3.86340        0.83310
C          6.88240        2.15730        0.56830
H          0.51450       -0.15780        1.89500
H          0.35840       -0.05320        0.09780
H          0.45160        1.45280        1.08570
H          2.78650       -0.62440        0.76210
H          2.57270        2.41850        0.95770
H          4.96240        0.36500        0.63070
H          3.89410        4.03360        0.93710
H          5.31190        4.41630       -0.06970
H          5.46750        4.31190        1.72270
H          7.12080        1.07530        0.48460
H          7.41700        2.56080        1.45370
H          7.26100        2.66550       -0.34330
