18
1684	2
C          2.69330       -1.07960        0.76110
C          2.22320        0.35950        0.55730
N          3.00710        1.02540       -0.49780
C          2.42490        2.33040       -0.83300
N          4.31370        1.22960       -0.04830
C          5.42380        0.65390       -0.72730
N          5.26580       -0.08580       -1.76760
H          2.06960       -1.56830        1.53900
H          3.75260       -1.10650        1.09180
H          2.59320       -1.64890       -0.18740
H          2.29510        0.91840        1.51800
H          1.15230        0.31670        0.25820
H          1.39640        2.19900       -1.23230
H          3.03150        2.82030       -1.62480
H          2.38820        2.99670        0.05760
H          4.48990        1.81250        0.78580
H          6.42660        0.84110       -0.35850
H          4.33370       -0.29340       -2.15320
