17
2669	1
C          2.91690        1.43230       -0.20870
C          2.52050       -0.03880       -0.06970
C          3.10590       -0.69610        1.19580
O          2.62900       -2.01050        1.33520
C          4.54990       -0.69610        1.19580
C          5.74000       -0.69610        1.19580
C          7.18400       -0.69610        1.19580
H          2.44760        1.85790       -1.12070
H          4.01830        1.53780       -0.30090
H          2.56720        2.00980        0.67330
H          2.85250       -0.59350       -0.97490
H          1.41140       -0.09320       -0.01590
H          2.76460       -0.11940        2.08190
H          2.90400       -2.52350        0.52920
H          7.55390       -0.93780        0.17810
H          7.55420       -1.45640        1.91400
H          7.55390        0.30620        1.49500
