20
4172	1
C          1.13590        0.09940       -0.11500
C          2.65840        0.04550        0.09890
C          2.95500       -0.16120        1.59660
N          3.20440       -1.08280       -0.67450
C          3.24000        1.42150       -0.34660
C          4.73060        1.48760       -0.62460
C          3.71330        1.63080       -1.77210
H          0.65750       -0.84810        0.21440
H          0.90370        0.25110       -1.19130
H          0.68470        0.93510        0.46310
H          2.51880       -1.11920        1.95280
H          2.52520        0.66630        2.20150
H          4.05150       -0.18970        1.77430
H          2.71710       -1.97000       -0.40810
H          4.21640       -1.22670       -0.45890
H          2.93430        2.33040        0.21780
H          5.34080        0.61590       -0.93370
H          5.22730        2.47910       -0.56670
H          3.43830        0.73640       -2.36820
H          3.34560        2.63910       -2.05960
