15
4095	1
N          0.95900        0.06050       -0.09510
C          2.40460        0.18640        0.11990
C          3.18520       -0.83080       -0.73710
C          3.26270        0.66160       -1.04380
O          2.56750        1.05740       -2.19560
C          4.54140        1.42300       -0.69030
F          4.24920        2.76170       -0.50700
H          0.62300       -0.78060        0.42640
H          0.70120       -0.06400       -1.10040
H          2.78170        0.12650        1.16340
H          2.67700       -1.33130       -1.58970
H          4.17740       -1.16630       -0.36660
H          2.07310        1.88050       -1.94580
H          5.26900        1.32140       -1.52210
H          5.00710        1.02850        0.23820
