12
5449	1
F          0.85940        0.07330        0.25560
C          2.19970        0.05670        0.03160
C          2.85580        1.21170       -0.16000
O          4.19640        1.22690       -0.38640
C          4.95570        0.10030       -0.43490
C          4.40660       -1.11050       -0.25730
C          2.92920       -1.26340        0.00210
H          2.31120        2.14990       -0.13460
H          6.02150        0.18450       -0.62020
H          5.03310       -1.99610       -0.30040
H          2.78960       -1.77050        0.97970
H          2.49060       -1.89600       -0.79770
