17
5534	1
C          0.98760       -0.07190       -0.13580
C          2.48970       -0.11320        0.14260
C          2.99650        1.02380        1.02040
N          4.32160        0.59560        1.49820
C          4.37350       -0.85700        1.27240
C          2.94700       -1.29110        0.97110
F          2.88200       -2.50040        0.30140
H          0.73550        0.85050       -0.70050
H          0.40970       -0.08200        0.81290
H          0.69320       -0.95300       -0.74420
H          3.04810       -0.10500       -0.82300
H          2.31920        1.13000        1.90190
H          3.03350        1.99810        0.48910
H          4.39790        0.80470        2.52100
H          4.83090       -1.41980        2.11550
H          4.99610       -1.02360        0.36520
H          2.36260       -1.34010        1.91890
