20
3219	1
C          1.00040        0.25640       -0.06730
C          2.49270        0.00490       -0.32850
C          2.83530       -1.49620       -0.24890
N          2.52760       -2.03600        1.07340
C          2.90810        0.58250       -1.67820
C          2.27550        0.08560       -2.95930
C          3.84650        1.54360       -1.73280
H          0.71680       -0.10500        0.94370
H          0.36720       -0.26930       -0.81240
H          0.78520        1.34520       -0.11380
H          3.06050        0.51890        0.47990
H          3.92070       -1.63660       -0.45350
H          2.25980       -2.06460       -1.01090
H          3.11640       -1.55110        1.78890
H          2.78420       -3.04930        1.08650
H          1.18190        0.26830       -2.94140
H          2.46160       -1.00000       -3.08470
H          2.68580        0.60270       -3.85320
H          4.31710        1.91710       -0.82860
H          4.15700        1.96780       -2.68270
