14
482	1
C          0.98810        0.09710       -0.04680
C          2.51630        0.07580       -0.06510
O          2.96020        1.43630       -0.02620
C          3.04650       -0.65060        1.17990
F          4.41090       -0.57280        1.20140
C          2.99760       -0.53930       -1.27960
C          3.39430       -1.04620       -2.28070
H          0.61470        0.60620        0.84930
H          0.56580       -0.91370       -0.07270
H          0.59140        0.65250       -0.90560
H          3.93400        1.39330        0.01860
H          2.77040       -1.70990        1.19370
H          2.69170       -0.17350        2.09890
H          3.75280       -1.49360       -3.17920
