17
92	1
C          0.89110        0.08900        0.03200
C          2.35370        0.06950        0.02880
C          3.55940        0.05360        0.02590
C          5.03560        0.03350        0.02140
C          5.56500        0.63770       -1.28960
C          5.54420        0.85430        1.21190
O          5.49420       -1.28840        0.16690
H          0.51110       -0.76610        0.62810
H          0.51790        0.00840       -1.00960
H          0.53490        1.03940        0.48000
H          5.22190        1.68890       -1.40580
H          5.20300        0.05310       -2.16290
H          6.67610        0.62460       -1.29880
H          5.19990        1.90940        1.14220
H          6.65520        0.84680        1.23900
H          5.17200        0.42350        2.16690
H          5.15850       -1.81860       -0.60410
