12
1185	1
C          1.08540        0.01970       -0.12370
C          2.61240       -0.05720       -0.04730
C          3.39290       -0.71240       -1.17610
F          2.52840       -1.34390       -2.05540
C          3.27550        0.81650       -1.09150
F          4.52570        1.30880       -0.76320
H          0.65170       -0.82700        0.44740
H          0.70050       -0.01810       -1.16520
H          0.74450        0.96980        0.33820
H          3.11650        0.08190        0.93370
H          4.17400       -1.31650       -0.66760
H          2.81850        1.12320       -2.05680
