13
2441	1
O          1.11400        0.40260       -0.94890
N          2.42080        0.32230       -0.82110
C          2.99340       -0.82130       -0.70540
C          4.49000       -0.91120       -0.55900
O          4.82820       -1.49970        0.67160
C          5.11590       -1.68550       -1.72440
F          4.63640       -2.98350       -1.77060
H          0.68900        1.26630       -1.03570
H          2.39910       -1.73210       -0.71210
H          4.91780        0.11570       -0.57110
H          4.43370       -2.41100        0.69440
H          6.21960       -1.71380       -1.60430
H          4.88030       -1.18020       -2.68550
