20
417	1
C          1.18030        0.08620        0.07160
O          2.54380       -0.21990       -0.14490
C          2.78250       -1.42420       -0.87600
C          2.20220       -2.67540       -0.16970
C          2.23530       -1.33790       -2.32080
C          4.32140       -1.58330       -0.97350
N          4.94070       -1.69030        0.34720
H          1.13700        1.04100        0.63410
H          0.67820       -0.66040        0.71890
H          0.63320        0.27610       -0.87310
H          1.09370       -2.65520       -0.14140
H          2.58030       -2.75160        0.87180
H          2.49120       -3.59840       -0.71740
H          1.12820       -1.28080       -2.34190
H          2.51790       -2.24400       -2.89930
H          2.64840       -0.44650       -2.83970
H          4.75840       -0.71000       -1.50920
H          4.57080       -2.49760       -1.55740
H          4.80780       -0.79480        0.86960
H          5.96900       -1.82980        0.22070
