12
673	1
C          1.42510       -0.63530       -0.09310
O          2.74690       -0.24760       -0.02430
C          3.25810        0.47670        1.00400
O          2.54590        0.82320        1.93760
C          4.71320        0.84880        0.98330
O          5.07360        1.57450        2.12860
H          1.26380       -1.21310       -1.02630
H          0.76370        0.25740       -0.10710
H          1.16860       -1.27990        0.77490
H          4.94510        1.43410        0.06490
H          5.32250       -0.07820        0.94770
H          4.78010        2.51100        1.97670
