15
1460	1
C          0.88740        0.10220       -0.04450
C          2.41570       -0.01270        0.02690
N          3.02900        0.04910        1.35130
C          3.23100       -0.72780       -1.04060
O          2.37980       -1.33170       -1.97260
C          3.16150        0.81850       -0.98950
F          4.41550        1.27800       -0.62650
H          0.42760       -0.76210        0.47790
H          0.51910        0.12320       -1.09220
H          0.56210        1.03850        0.45550
H          2.66990       -0.75190        1.91860
H          2.73670        0.93780        1.81820
H          3.94480       -1.38610       -0.49900
H          2.83460       -1.22410       -2.84680
H          2.73420        1.14430       -1.96220
