14
1431	1
C          1.01920       -0.06610        0.02910
C          2.51670       -0.06610        0.03260
C          3.19770       -0.05690        1.18480
C          4.60370       -0.05690        1.18480
C          5.79390       -0.05690        1.18480
C          7.23790       -0.05690        1.18480
H          0.64670       -0.07450       -1.01660
H          0.63870        0.84420        0.53880
H          0.63870       -0.96820        0.55330
H          3.04640       -0.07370       -0.91740
H          2.67030       -0.04930        2.13420
H          7.60810       -0.79700        1.92380
H          7.60800        0.95320        1.45620
H          7.60800       -0.32680        0.17430
