14
5580	1
F          0.86130        0.00060        0.11530
C          2.23540       -0.08040       -0.03360
C          2.92380        1.00480        0.78150
O          4.18800        0.51860        1.18720
C          4.00620       -0.86560        1.42150
C          2.82760       -1.25070        0.61360
C          2.39860       -2.50720        0.45540
H          2.53200       -0.09180       -1.10460
H          2.34290        1.20100        1.71300
H          2.99270        1.95390        0.20970
H          3.84100       -1.07440        2.50050
H          4.89930       -1.41190        1.05050
H          2.90650       -3.32720        0.95330
H          1.53880       -2.72000       -0.17220
