18
1208	1
C          1.03990        0.01450        0.06030
N          2.50270        0.03960        0.06600
C          3.00290        0.96000        1.09350
C          4.53490        0.96730        1.09380
C          5.08440        1.89810        2.17910
N          6.54280        1.90540        2.15190
H          0.68740       -0.70340       -0.71110
H          0.63130        1.02140       -0.17810
H          0.65360       -0.32170        1.04680
H          2.82500        0.36370       -0.87610
H          2.64730        0.62790        2.09540
H          2.63150        1.99220        0.89850
H          4.90000        1.30920        0.10050
H          4.90330       -0.06570        1.27750
H          4.73520        1.55930        3.18000
H          4.71520        2.93210        1.99830
H          6.89630        0.94390        2.36620
H          6.88450        2.55690        2.89610
