14
3478	1
N          2.95010       -0.75720       -1.07560
C          2.38460       -0.21650        0.15530
C          2.95890       -0.93400        1.35620
C          2.14440       -1.60090        2.19360
C          4.45310       -0.87790        1.59280
F          4.84820        0.43960        1.73220
F          4.83600       -1.57660        2.72550
H          2.58580       -0.20100       -1.88210
H          2.62210       -1.74320       -1.19360
H          1.27510       -0.30170        0.11500
H          2.63790        0.86250        0.23260
H          1.07350       -1.63420        2.01740
H          2.53060       -2.12210        3.06330
H          4.97990       -1.31770        0.72080
