13
248	1
N          0.79560        0.05290        0.12810
C          2.19980        0.20920        0.01110
C          3.02190       -0.31870        0.93670
C          4.51310       -0.21440        0.91150
N          5.25400       -0.82250        1.95640
N          5.15090        0.40590       -0.02160
H          0.17470        0.46040       -0.58540
H          0.38210       -0.46400        0.91840
H          2.58100        0.76060       -0.83740
H          2.57770       -0.86210        1.76620
H          4.77290       -1.32540        2.71620
H          6.28300       -0.76710        1.96540
H          4.69200        0.87250       -0.81290
