10
1099	2
N          0.91240        0.05640        0.04250
C          2.32350        0.05630        0.03650
N          3.07660        1.17430        0.03410
C          4.33520        0.69110        0.02840
N          4.33110       -0.65390        0.02740
H          5.16180       -1.28590        0.02340
N          3.07440       -1.05880        0.03250
H          0.39440        0.94670        0.04530
H          0.39420       -0.83380        0.04400
H          5.22720        1.30320        0.02500
