12
5445	2
C          1.01590        0.09860       -0.05290
C          2.51110        0.08540       -0.05900
N          3.17530        1.19720       -0.06200
N          4.55890        1.20340       -0.06760
C          5.21900        0.09710       -0.06990
N          4.50050       -1.12510       -0.06670
O          3.17800       -1.10010       -0.06130
H          0.62770        1.13970       -0.05160
H          0.64540       -0.42400        0.85340
H          0.63800       -0.42440       -0.95590
H          6.30370        0.10350       -0.07430
H          5.00130       -2.02490       -0.06840
