13
4328	1
F          0.92980        0.12650        0.07080
C          2.30460        0.07380       -0.07580
C          2.88920       -1.18540        0.57530
C          3.09510       -0.83260        2.05340
F          4.16610       -1.53510        2.57680
C          3.35820        0.62600        1.96140
C          2.91450        1.13430        0.76750
H          2.58460        0.11830       -1.15000
H          3.91620       -1.27650        0.14760
H          2.36770       -2.14250        0.36350
H          2.18270       -0.98100        2.66960
H          3.73690        1.24100        2.76700
H          2.90780        2.19110        0.53580
