12
454	1
C          0.93840       -0.05740       -0.00370
C          2.46310       -0.05720       -0.05910
F          2.90710        0.05480        1.23050
C          2.97410       -1.37320       -0.63200
F          4.33550       -1.38290       -0.66020
C          2.94440        1.06600       -0.82860
N          3.32810        1.96120       -1.44190
H          0.57440       -0.88390        0.61660
H          0.49240       -0.14770       -1.00030
H          0.56570        0.86720        0.45260
H          2.62260       -1.54180       -1.65540
H          2.66360       -2.21740       -0.00850
