13
720	2
C          1.94640        0.84240       -0.30910
N          3.30860        0.35660       -0.26640
C          3.59210       -0.96830       -0.14460
O          2.68550       -1.78770       -0.06750
C          5.00550       -1.41780       -0.10530
C          5.33950       -2.70790        0.01330
H          1.94280        1.94830       -0.41110
H          1.41610        0.56980        0.62820
H          1.41330        0.40300       -1.17900
H          4.07960        1.03890       -0.33060
H          5.79720       -0.67740       -0.17500
H          4.58200       -3.48230        0.08600
H          6.38580       -2.99480        0.03810
