11
2952	1
F          1.72980        0.50650       -1.22240
C          2.20670       -0.04130       -0.05440
C          2.72600        1.03520        0.85060
F          1.82900        1.86730        1.43370
C          4.03500        1.18020        1.10170
C          4.51030        2.20340        1.98010
C          4.90520        3.06300        2.71770
H          2.97860       -0.78180       -0.31470
H          1.37290       -0.56730        0.44310
H          4.77300        0.53830        0.64740
H          5.24830        3.81880        3.36570
