12
1872	1
F          0.98460        0.12400        0.17770
C          2.36600        0.07530        0.13550
C          2.83800        0.38460       -1.28900
C          2.32670       -0.59190       -2.26180
C          1.90250       -1.39820       -3.05310
C          2.90380        1.06350        1.13390
O          3.98690        1.60840        0.97510
H          2.67770       -0.94260        0.45180
H          3.94510        0.37920       -1.33100
H          2.47670        1.39160       -1.58200
H          1.50370       -2.06530       -3.77330
H          2.36200        1.21490        2.05700
