12
6202	1
N          0.90780       -0.03310       -0.07400
C          2.32070       -0.04030       -0.07010
C          3.14390        1.06090       -0.06570
C          4.43510        0.55730       -0.06320
O          4.39410       -0.76140       -0.06600
C          3.13770       -1.14330       -0.07020
O          2.73250       -2.42590       -0.07390
H          0.39390        0.85970       -0.07350
H          0.38290       -0.91950       -0.07720
H          2.84820        2.10160       -0.06440
H          5.34600        1.14080       -0.05960
H          3.37870       -3.14530       -0.07360
