8
35	1
O          1.12220        0.62170        0.07040
C          2.45790        0.21720       -0.04760
C          2.70360       -0.99680        0.79390
O          3.10400       -2.03040        0.28320
H          0.58720        0.00400       -0.49390
H          3.11180        1.04000        0.30850
H          2.71280        0.02990       -1.11600
H          2.52570       -0.95840        1.86360
