11
823	1
C          1.29210        0.10080        0.13890
C          2.50590       -0.37860       -0.52260
C          2.87980       -0.97590       -1.38850
F          1.35330       -1.44670       -2.06780
C          4.39860       -0.40000       -0.55780
C          5.37360       -0.03230       -0.02740
H          1.65300        0.66540        1.04420
H          0.70990       -0.75390        0.49270
H          0.76900        0.81970       -0.50450
H          2.98900       -1.11600       -1.59160
H          6.36960        0.07630        0.13150
