11
6242	1
C          1.16970       -0.00120        0.01530
C          2.65910       -0.07730        0.01380
O          3.47650        0.94740        0.00840
N          4.71120        0.52320        0.00870
N          4.72940       -0.80410        0.01440
C          3.44580       -1.19810        0.01760
O          3.03180       -2.47810        0.02370
H          0.84450        1.06010        0.01120
H          0.77140       -0.49970        0.92350
H          0.76920       -0.50740       -0.88770
H          3.67150       -3.20350        0.02600
