14
5473	1
C          0.93000       -0.02910        0.10980
C          2.42840       -0.00560        0.04430
C          3.12780        1.20940        0.02620
C          4.52380        1.19770       -0.03520
N          5.19630        0.01610       -0.07680
C          4.54080       -1.17560       -0.06040
C          3.14530       -1.20820        0.00050
H          0.50600        0.99720        0.13940
H          0.60500       -0.56960        1.02370
H          0.52580       -0.55020       -0.78350
H          2.59950        2.15410        0.05910
H          5.07280        2.12980       -0.04970
H          5.10290       -2.09930       -0.09450
H          2.62740       -2.15930        0.01340
