16
2785	3
C          0.99740       -0.03190       -0.33430
N          2.41070        0.12950       -0.07340
C          2.92130        0.90610        0.83050
C          2.05190        1.75730        1.74140
N          4.34400        0.94700        0.95610
C          5.01640        1.76280        1.91330
N          6.29900        1.76160        1.98360
H          0.86470       -0.75910       -1.16140
H          0.54910        0.93580       -0.64550
H          0.48140       -0.42940        0.56570
H          0.96470        1.65310        1.56300
H          2.30650        2.82800        1.59740
H          2.23940        1.47460        2.79820
H          4.90850        0.35830        0.32400
H          4.45940        2.39480        2.59480
H          6.86900        1.17620        1.35540
