18
3156	1
C          2.82660       -0.70020        1.23750
C          2.37150        0.14900        0.04130
O          2.40670        1.51720        0.36510
C          3.15800       -0.14840       -1.26650
N          2.55800        0.57500       -2.39390
C          4.64650        0.14330       -1.12570
C          5.31990        1.00360       -1.90240
H          2.17570       -0.49000        2.11270
H          3.87260       -0.46890        1.52500
H          2.74870       -1.78060        0.99220
H          1.30950       -0.12190       -0.14310
H          3.34130        1.74790        0.60560
H          3.06840       -1.23600       -1.48260
H          2.54050        1.60350       -2.20200
H          1.57230        0.25220       -2.53270
H          5.20170       -0.38360       -0.35690
H          4.83840        1.56210       -2.69630
H          6.38290        1.15180       -1.74070
