15
1562	1
O          3.13860       -0.43090       -1.08690
C          2.29420       -0.02660       -0.04620
C          2.77710       -0.65010        1.26910
C          1.87850       -0.44140        2.47470
C          2.15190       -1.91630        2.71460
N          2.67070       -2.11230        1.35530
H          2.79110        0.00470       -1.90800
H          1.25080       -0.34980       -0.26080
H          2.32950        1.08060        0.05720
H          3.82760       -0.36010        1.51040
H          0.82030       -0.34240        2.14420
H          2.19990        0.28390        3.25180
H          1.26350       -2.53130        2.98130
H          2.99670       -2.05020        3.43010
H          1.86080       -2.42990        0.76940
