11
4309	1
O          1.30320       -0.28480        0.62630
C          2.39820       -0.15000        0.10500
C          3.06870        1.17360       -0.08880
C          4.39140        0.76400       -0.77630
C          4.25000       -0.72340       -0.85730
O          5.09390       -1.45860       -1.34360
O          3.10800       -1.18520       -0.34610
H          3.25250        1.65750        0.89440
H          2.45150        1.82340       -0.74560
H          5.27370        1.03200       -0.15630
H          4.47250        1.19730       -1.79620
