9
5209	1
O          0.94260        0.01350       -0.07690
C          2.16320        0.01990       -0.07760
N          2.85120        1.18630       -0.07760
O          4.17550        1.15920       -0.07840
C          4.84650       -0.02490       -0.07930
N          4.18650       -1.13710       -0.07930
O          2.85870       -1.14370       -0.07850
H          2.35560        2.09000       -0.07700
H          5.93070       -0.03590       -0.08000
