15
2668	1
C          0.86200       -0.06290        0.00810
C          2.32500       -0.05960        0.00730
C          3.53060       -0.05260        0.00850
C          5.00390       -0.03640        0.01380
N          5.51890       -0.79810        1.15200
C          5.54440       -0.61090       -1.29680
F          6.92680       -0.55530       -1.30070
H          0.49040        0.91030       -0.37370
H          0.49300       -0.21850        1.04270
H          0.49250       -0.88110       -0.64360
H          5.34130        1.01890        0.10300
H          5.18050       -1.78790        1.10880
H          5.17810       -0.36960        2.04380
H          5.16440       -0.02050       -2.15830
H          5.22590       -1.66850       -1.42180
