17
2234	1
C          1.55920        0.37570        0.19470
C          2.78830       -0.03040        1.00330
C          4.07300        0.14270        0.18030
C          5.30650       -0.24470        0.97450
C          6.23460        0.67980        1.26740
C          5.51470       -1.64440        1.42210
O          4.71620       -2.52030        1.13070
H          0.64660        0.24720        0.81420
H          1.46660       -0.26030       -0.71140
H          1.63230        1.44070       -0.11260
H          2.66430       -1.08710        1.31840
H          2.84510        0.60580        1.91350
H          4.13460        1.20850       -0.13480
H          4.02870       -0.47930       -0.73990
H          6.11590        1.71130        0.95010
H          7.12530        0.41470        1.82980
H          6.39640       -1.90560        1.99980
