12
1492	1
C          0.97190        0.00890       -0.10190
N          2.38490       -0.06090       -0.27990
N          3.03020        1.04940       -0.70450
C          4.23480        0.96850       -1.10590
C          4.85650        2.18720       -1.44930
C          5.38660        3.22100       -1.74160
H          0.57590       -0.98700        0.14220
H          0.46410        0.37850       -1.00390
H          0.75660        0.68940        0.73930
H          2.85640       -0.51230        0.50210
H          4.76260       -0.00260       -1.19920
H          5.83020        4.14570       -1.99230
