15
6388	1
C          1.33820        0.47880       -0.12550
C          2.64630       -0.22440        0.21760
C          2.81470       -1.74580        0.09430
C          4.28810       -1.88900        0.00910
C          4.92390       -0.67900        0.07890
C          3.97320        0.44810        0.23660
O          3.18760        0.31120        1.40380
H          0.51830        0.06210        0.49590
H          1.10150        0.31160       -1.19670
H          1.41070        1.57250        0.05740
H          2.36450       -2.11700       -0.85040
H          2.38570       -2.27910        0.96860
H          4.80660       -2.83270       -0.09710
H          5.99930       -0.56740        0.04610
H          3.93440        1.36780       -0.38410
