11
267	1
N          1.06860        0.00240       -0.05090
N          2.43800        0.12690       -0.04850
C          3.07820        0.46140        1.01810
C          4.55230        0.59450        1.01690
F          5.17680        0.95010        2.17030
C          5.28740        0.37620       -0.08070
H          0.58320       -0.26630       -0.91800
H          0.51640        0.17390        0.80340
H          2.53970        0.65250        1.94260
H          4.82790        0.09050       -1.02180
H          6.36650        0.48450       -0.03960
