11
4620	1
N          0.97110        0.00060       -0.09690
C          2.38320        0.02070       -0.09580
C          3.18240        1.14360       -0.09490
C          4.45940        0.62400       -0.09390
O          5.49340        1.26640       -0.09300
O          4.40120       -0.68860       -0.09420
N          3.15970       -1.07910       -0.09530
H          2.84360       -2.07410       -0.09570
H          0.43910        0.88280       -0.09720
H          0.46590       -0.89690       -0.09750
H          2.87970        2.18270       -0.09500
