19
213	2
C          1.04780        0.72720       -0.69550
C          2.22520        0.35360        0.22070
C          2.90620        1.63900        0.71050
N          1.76350       -0.43150        1.35950
C          1.24200       -1.76280        1.25790
C          0.68730       -2.42080        2.48530
N          1.26310       -2.42340        0.15100
H          1.41120        1.32350       -1.55960
H          0.30160        1.33040       -0.13500
H          0.52980       -0.16450       -1.09760
H          2.98820       -0.22460       -0.34450
H          2.19480        2.26600        1.29040
H          3.28380        2.22910       -0.15190
H          3.76960        1.38480        1.36160
H          1.82630       -0.01730        2.30290
H          1.47550       -2.47680        3.26490
H          0.33210       -3.44990        2.26240
H         -0.16580       -1.82470        2.87100
H          1.65460       -2.04710       -0.72150
