21
5030	1
C          1.00810       -0.00690        0.19560
C          2.54100       -0.04330        0.05900
C          3.06030       -1.44960       -0.31760
C          2.67740       -1.83400       -1.75780
C          3.21520       -0.78890       -2.74670
C          2.67760        0.60940       -2.40700
C          3.06040        0.99050       -0.96600
H          0.68290       -0.73010        0.97340
H          0.48440       -0.25740       -0.74720
H          0.68300        1.00700        0.51180
H          2.94650        0.22270        1.06020
H          2.67620       -2.20770        0.39870
H          4.17050       -1.44950       -0.24310
H          1.57450       -1.91040       -1.85660
H          3.10560       -2.82970       -2.00220
H          2.91980       -1.06390       -3.78190
H          4.32650       -0.77560       -2.69640
H          1.57470        0.62670       -2.53080
H          3.10590        1.35240       -3.11340
H          2.67650        2.00420       -0.72050
H          4.17070        1.02730       -0.90120
