17
1270	1
C          0.95670        0.28850        0.03890
C          2.48050        0.24390        0.05930
N          2.96770       -0.80250       -0.84570
C          4.43110       -0.87900       -0.81410
C          4.89590       -1.99530       -1.70820
C          5.70980       -1.77270       -2.74470
H          0.59540        1.07860        0.73030
H          0.54220       -0.68990        0.36250
H          0.59270        0.51740       -0.98530
H          2.81070        0.03030        1.10010
H          2.87580        1.23800       -0.24910
H          2.66730       -0.57010       -1.82250
H          4.77730       -1.10370        0.21830
H          4.87080        0.09540       -1.12900
H          4.55920       -3.00760       -1.50500
H          6.06350       -0.77220       -2.97450
H          6.02620       -2.59990       -3.37170
