16
9	1
C          1.05190       -0.03560        0.06350
C          2.58420       -0.10090        0.07920
C          3.06240       -0.95460        1.26330
C          3.10120       -0.66130       -1.26100
N          4.56090       -0.66380       -1.30370
H          0.67760        0.40130        1.01440
H          0.61510       -1.05060       -0.06190
H          0.70500        0.60930       -0.77310
H          2.97150        0.93490        0.20860
H          2.69430       -1.99960        1.16800
H          2.68460       -0.52830        2.21770
H          4.17210       -0.96870        1.31170
H          2.71880       -0.03570       -2.09830
H          2.72770       -1.70030       -1.40560
H          4.90920        0.31950       -1.22690
H          4.86440       -1.03500       -2.23290
