16
996	1
C          3.64900       -0.90170       -1.22100
N          4.30970       -0.53290        0.00410
N          4.02910        0.67760        0.59510
C          4.60210        1.03650        1.69010
C          4.27790        2.36210        2.31220
C          3.70650        2.16720        3.71220
F          5.43150        3.12160        2.38620
H          3.99440       -1.90400       -1.55180
H          3.88460       -0.15860       -2.01140
H          2.55100       -0.93240       -1.05930
H          4.99030       -1.18220        0.42990
H          5.32650        0.38510        2.17360
H          3.53210        2.90640        1.69190
H          4.44060        1.64390        4.36210
H          2.77090        1.56960        3.66570
H          3.47420        3.15550        4.16220
