18
564	1
C          2.83300        0.29220        0.89080
O          3.89190       -0.42520        0.29910
C          3.51240       -0.83260       -0.99780
C          4.67160       -1.60420       -1.63120
C          4.33270       -2.07060       -3.05440
C          5.51070       -2.81310       -3.68020
F          3.23330       -2.91260       -3.02760
H          3.14840        0.60380        1.90770
H          1.92900       -0.34530        1.01190
H          2.60490        1.22110        0.32220
H          3.29420        0.05360       -1.63780
H          2.62550       -1.50580       -0.95040
H          4.91040       -2.48690       -0.99770
H          5.56380       -0.94060       -1.66560
H          4.09380       -1.18790       -3.68700
H          5.76470       -3.71270       -3.07980
H          6.40000       -2.14960       -3.73520
H          5.24570       -3.13520       -4.70940
