14
1272	1
C          0.89600       -0.04650       -0.28240
C          2.40020        0.00270       -0.03650
N          2.67200        0.41960        1.34540
C          4.10980        0.53490        1.62570
C          4.76300       -0.78310        1.68450
N          5.27940       -1.81770        1.73150
H          0.69620       -0.33450       -1.33600
H          0.44420        0.95000       -0.09060
H          0.42240       -0.79530        0.38750
H          2.84680        0.73530       -0.74440
H          2.83050       -1.00330       -0.23680
H          2.23240       -0.24770        2.02330
H          4.24190        1.02590        2.61230
H          4.61020        1.16990        0.86300
