12
2423	1
F          2.48760       -1.07750        0.87790
C          2.15860       -0.01250        0.05740
C          2.93320       -0.09000       -1.25610
F          2.52990        0.95300       -2.07520
C          4.42140       -0.05350       -0.99730
C          5.21930        0.89880       -1.49600
F          6.55050        0.87410       -1.22670
H          2.38670        0.93970        0.58280
H          1.06860       -0.04970       -0.15190
H          2.68750       -1.04580       -1.76580
H          4.86030       -0.83430       -0.38260
H          4.82460        1.69740       -2.11530
