16
524	1
C          1.63640        0.59460        0.55030
C          2.92780        0.42800       -0.24940
C          3.33220       -1.05770       -0.38620
O          2.31010       -1.78920       -1.01440
C          4.64660       -1.31690       -1.10490
C          5.41380       -0.36310       -1.65110
H          1.38950        1.67380        0.63620
H          1.75860        0.17590        1.57190
H          0.79280        0.08020        0.04340
H          3.73320        0.98190        0.28040
H          2.78320        0.87720       -1.25620
H          3.45690       -1.46190        0.64160
H          2.21420       -1.43380       -1.93730
H          4.98170       -2.34740       -1.18000
H          5.14420        0.68550       -1.61820
H          6.33860       -0.63930       -2.14720
