20
4145	1
C          0.82590       -0.03810        0.27420
C          2.34140       -0.12080       -0.00010
C          2.70490       -1.55380       -0.41230
C          2.88780        0.88910       -1.06040
N          4.33980        1.05570       -1.13040
C          2.16700        1.15740       -2.36610
C          2.17470        2.21630       -1.23850
H          0.54260       -0.77810        1.05330
H          0.22540       -0.25640       -0.63240
H          0.55030        0.96170        0.66860
H          2.84720        0.10230        0.96540
H          2.21280       -1.81660       -1.37370
H          2.37550       -2.27480        0.36600
H          3.80200       -1.67010       -0.52780
H          4.78190        0.17320       -1.47120
H          4.70860        1.27990       -0.17800
H          1.31650        0.45160       -2.44670
H          2.92820        1.22920       -3.17330
H          1.09640        2.36270       -1.02540
H          2.74420        3.07230       -1.65990
