9
1171	1
N          1.01730       -0.06730       -0.07330
C          2.42810       -0.06020       -0.07280
N          3.18550        1.05090       -0.07240
N          4.43710        0.61800       -0.07200
N          4.43650       -0.70630       -0.07230
H          5.29220       -1.30380       -0.07210
N          3.19560       -1.16210       -0.07280
H          0.49490        0.82040       -0.07330
H          0.50380       -0.96030       -0.07360
