18
2410	1
C          0.61550       -0.95640       -0.96540
C          2.05450       -0.56520       -1.12800
C          3.04950       -1.42990       -0.87350
C          4.49650       -1.04130       -1.03670
O          5.13490       -1.18470        0.20520
C          5.16040       -1.94910       -2.08150
N          6.56330       -1.58790       -2.26310
H          0.09490       -0.84450       -1.93900
H          0.13680       -0.28760       -0.22040
H          0.50420       -2.00750       -0.62250
H          2.27970        0.44400       -1.46090
H          2.81830       -2.43870       -0.54050
H          4.56160        0.01970       -1.37920
H          5.92360       -0.58160        0.19970
H          4.62660       -1.85450       -3.05420
H          5.09900       -3.00870       -1.74750
H          6.62030       -0.61710       -2.64860
H          6.98350       -2.23460       -2.96920
