18
60	1
C          0.77740        0.57410        0.55000
C          2.31200        0.51940        0.54670
C          2.86990        1.87050        0.06170
C          2.81520        0.22140        1.97150
O          2.70410       -0.49130       -0.31440
N          3.97600       -0.77450       -0.52230
C          4.30740       -1.71970       -1.32280
H          0.41140        1.37370        1.23000
H          0.35620       -0.39710        0.88840
H          0.39520        0.77900       -0.47330
H          2.54080        2.69440        0.73130
H          2.51380        2.08840       -0.96820
H          3.98080        1.85610        0.04970
H          2.48500        1.01310        2.67830
H          3.92510        0.17610        1.99530
H          2.41960       -0.75520        2.32460
H          5.35530       -1.94480       -1.48700
H          3.54720       -2.29900       -1.83920
