17
904	1
C          1.06280       -0.04980        0.35570
N          2.50550        0.01260        0.08420
C          3.15750        1.11400        0.82160
C          4.50330        0.56250        1.25940
C          4.08680       -0.82590        1.68040
C          3.21070       -1.21660        0.49910
H          0.58020        0.90500        0.05590
H          0.86240       -0.23970        1.43370
H          0.60330       -0.86450       -0.24360
H          2.58320        1.36230        1.74650
H          3.24910        2.03550        0.20890
H          5.00480        1.16060        2.04970
H          5.17730        0.48720        0.37510
H          3.45450       -0.74800        2.59490
H          4.92240       -1.52990        1.87920
H          2.55320       -2.08730        0.71950
H          3.87650       -1.50390       -0.34490
