11
6214	2
O          0.89560       -0.04850       -0.02470
C          2.24160       -0.06480       -0.02300
C          3.09510        1.01630       -0.02210
N          4.35840        0.53960       -0.02040
H          5.23640        1.10400       -0.01940
O          4.30890       -0.76410       -0.02010
C          3.05940       -1.16590       -0.02160
N          2.68510       -2.39020       -0.02180
H          0.41000        0.78810       -0.02550
H          2.82690        2.06460       -0.02270
H          3.38050       -3.15050       -0.02080
