16
4920	1
N          1.13320       -0.24470        0.77270
C          2.29600       -0.18330       -0.11450
C          3.22370        1.02270        0.20440
N          4.17680        0.08940        0.70010
C          3.45150       -1.09780        0.37470
N          4.74570        0.27240        1.94390
C          5.45630       -0.64210        2.50480
H          0.47360        0.52120        0.50570
H          1.41370       -0.10140        1.77080
H          2.04320       -0.30510       -1.19020
H          2.86110        1.71830        0.99410
H          3.63660        1.51450       -0.70240
H          3.21810       -1.72160        1.26660
H          3.97660       -1.62960       -0.44740
H          5.88840       -0.46320        3.48290
H          5.64240       -1.58960        2.00760
