12
275	1
C          1.01860       -0.07870        0.04120
C          2.48150       -0.07640        0.04020
C          3.68700       -0.07380        0.03920
C          5.12790       -0.06910        0.03730
C          5.88280        1.13140       -0.44240
O          5.73510       -1.05210        0.43020
H          0.64770        0.77480        0.64510
H          0.65030       -1.02920        0.47920
H          0.64780        0.01660       -1.00010
H          5.18800        1.93650       -0.76420
H          6.52360        0.84850       -1.30370
H          6.52360        1.52000        0.37660
