15
984	1
C          0.99340        0.09210       -0.05290
C          2.50030        0.02580        0.18070
N          2.85120       -1.22380        0.88960
C          3.46380       -0.85000        2.18130
C          3.49130        0.62430        2.19730
C          2.94730        1.12170        1.06580
H          0.67670       -0.75400       -0.69840
H          0.72590        1.04390       -0.56030
H          0.44510        0.03020        0.91200
H          3.03440        0.09290       -0.79410
H          3.55600       -1.75010        0.32080
H          4.49750       -1.25180        2.26800
H          2.84080       -1.22410        3.02050
H          3.88330        1.23270        3.00150
H          2.85150        2.17820        0.85170
