12
3037	1
C          1.00330       -0.02120        0.15170
C          2.51330        0.03130        0.08970
C          3.20960        0.77270       -0.78680
C          2.61660        1.60660       -1.77270
N          2.13130        2.28670       -2.57670
C          3.20600       -0.75910        1.02400
C          3.81200       -1.42070        1.80600
H          0.51530        0.61080       -0.59550
H          0.65390        0.30820        1.13660
H          0.65390       -1.04710       -0.00990
H          4.29580        0.76050       -0.77250
H          4.33860       -2.01880        2.51330
