15
5003	1
F          2.63380        1.48570       -0.73260
C          2.31660        0.20210       -0.41460
C          1.27110       -0.38080       -1.01000
C          3.14800       -0.53010        0.60280
C          4.59630       -0.63780        0.10180
C          5.52300        0.41840        0.49510
N          5.58880       -0.91120        1.15470
H          0.68630        0.16970       -1.73990
H          0.99210       -1.40380       -0.77670
H          2.76300       -1.55890        0.77390
H          3.08240        0.02290        1.56530
H          4.83500       -1.19100       -0.83130
H          5.21680        1.18710        1.24000
H          6.43380        0.54210       -0.12680
H          5.15010       -0.82450        2.10130
