15
2646	1
N          0.85600       -0.78480       -1.81520
N          2.21260       -0.96890       -1.68730
C          2.87800       -0.41030       -0.73680
C          4.34450       -0.61710       -0.60910
C          4.98630       -0.00660        0.40580
C          5.05090       -1.48980       -1.60510
C          6.36630       -1.75280       -1.59620
H          0.35020       -1.24420       -2.58520
H          0.33340       -0.19270       -1.15160
H          2.36340        0.22210       -0.01590
H          4.43840        0.61750        1.10610
H          6.05030       -0.10590        0.56790
H          4.46170       -1.94630       -2.39470
H          7.04170       -1.34940       -0.85480
H          6.78470       -2.39830       -2.36190
