17
1667	1
C          0.53920       -0.01810        0.03750
C          2.02820       -0.20740       -0.25730
C          2.86360       -0.58710        0.99100
C          2.43500       -1.93720        1.57510
O          4.20790       -0.67840        0.66300
C          4.99430        0.37140        0.30670
O          4.57230        1.51780        0.33590
H          0.01820        0.29660       -0.89130
H          0.39710        0.76950        0.80760
H          0.06980       -0.96130        0.38180
H          2.39920        0.75380       -0.66920
H          2.15110       -0.98500       -1.04240
H          2.73380        0.18420        1.78350
H          2.54620       -2.74200        0.81720
H          1.38570       -1.91150        1.93150
H          3.07460       -2.18380        2.44940
H          6.02410        0.18990        0.02010
