11
2688	1
C          0.91340       -0.01610       -0.08780
C          2.37620       -0.01340       -0.08260
C          3.58200       -0.01410       -0.07690
C          5.04590       -0.01690       -0.06820
F          5.49910        0.30930        1.19570
C          5.53660       -1.34690       -0.43390
N          5.92460       -2.39830       -0.72310
H          0.54100       -0.26560        0.92700
H          0.54770       -0.77300       -0.81190
H          0.54200        0.98710       -0.38190
H          5.42150        0.72910       -0.79850
