11
1122	1
C          1.03620       -0.06940       -0.05830
C          2.52700       -0.07030       -0.06250
N          3.28320        1.04640       -0.06560
C          4.54880        0.58870       -0.06880
C          4.51850       -0.78760       -0.06740
O          3.26190       -1.15890       -0.06350
H          0.65090        0.97200       -0.05810
H          0.66820       -0.59270        0.84850
H          0.66310       -0.59440       -0.96190
H          5.42950        1.21670       -0.07190
H          5.36650       -1.45910       -0.06920
