13
1836	1
C          0.87610        0.03450       -0.58880
C          2.34150       -0.10000       -0.15510
O          2.43390       -0.58670        1.14090
C          2.04090        0.08990        2.25220
O          1.63670        1.24090        2.18290
C          3.05030       -1.03270       -1.10020
O          3.58090       -2.05530       -0.69410
H          0.33010        0.74530        0.06390
H          0.36730       -0.95240       -0.54120
H          0.81870        0.41900       -1.62990
H          2.84550        0.88960       -0.21770
H          2.11280       -0.39230        3.22060
H          3.09450       -0.79320       -2.15800
