16
633	1
N          1.04190       -0.32050       -0.28710
C          2.46710       -0.00150       -0.23290
C          2.76880        1.47330       -0.45330
C          1.79840        2.38780       -0.64730
C          4.21560        1.91100       -0.45480
N          4.84080        1.59980        0.82630
H          0.92330       -1.33600       -0.07000
H          0.69870       -0.17370       -1.26450
H          3.00100       -0.59720       -1.00610
H          2.86080       -0.29420        0.76430
H          0.74880        2.11800       -0.65090
H          2.04670        3.43310       -0.80290
H          4.31780        3.00150       -0.65600
H          4.74820        1.36740       -1.26440
H          4.38000        2.16370        1.57740
H          5.84610        1.88410        0.78360
