15
4281	2
C          1.10840       -0.10610        0.22800
C          2.38640       -0.00420       -0.14690
C          3.13710        1.29310       -0.28250
C          4.56250        0.84770       -0.73920
C          4.44860       -0.64770       -0.80710
N          5.40290       -1.43640       -1.14630
N          3.18160       -1.10620       -0.45980
H          0.53310        0.78440        0.46080
H          0.63360       -1.07930        0.30330
H          3.17710        1.81660        0.69690
H          2.65510        1.93670       -1.04940
H          5.33310        1.13890        0.00630
H          4.81010        1.25760       -1.74180
H          6.33010       -1.06380       -1.39800
H          2.88470       -2.09330       -0.43850
