14
3548	1
C          0.81840       -0.39200        0.41180
N          2.17360        0.03170        0.11470
N          2.87300        0.74590        1.08670
C          2.77060       -0.26300       -1.08540
O          3.91960        0.10040       -1.29540
C          2.05510       -1.03790       -2.16420
F          0.94130       -0.34370       -2.59850
H          0.52610       -0.06790        1.43360
H          0.74400       -1.49910        0.36810
H          0.10410        0.06390       -0.30440
H          3.14000        1.67760        0.69290
H          3.73440        0.21080        1.34370
H          1.75210       -2.03490       -1.78250
H          2.72670       -1.19260       -3.03580
