13
4352	1
N          1.11060       -0.03200       -0.34920
N          2.46630       -0.07140       -0.04130
C          3.24690       -1.28090        0.11420
C          4.56290       -0.63360        0.45020
N          5.65300       -1.25910        0.70790
N          4.46150        0.77210        0.46040
C          3.25800        1.07060        0.17840
H          0.76100       -1.00830       -0.47590
H          1.00010        0.47690       -1.25410
H          3.29530       -1.85790       -0.83410
H          2.86560       -1.90240        0.95150
H          5.68390       -2.28870        0.69550
H          2.89420        2.08740        0.11760
