12
1797	1
C          0.29750       -1.38900        0.25910
C         -1.06780       -0.93980       -0.25560
C         -1.26840        0.47770        0.22550
N         -0.26800        1.30040        0.20460
N          0.98740        0.88500       -0.21270
C          1.30160       -0.37160       -0.22820
H          0.57110       -2.41410       -0.06870
H          0.27010       -1.36550        1.37100
H         -1.89730       -1.59910        0.07660
H         -1.03350       -0.94230       -1.36760
H         -2.21740        0.78880        0.64910
H          2.24870       -0.68840       -0.65190
