13
1862	1
C          1.13590        0.00190        0.06820
N          2.57430       -0.06670        0.18460
O          3.31400        0.58210       -0.70700
C          4.39420        0.04520       -1.33330
O          4.65420       -1.14460       -1.23350
C          3.13730       -0.77920        1.29620
N          4.37820       -0.67850        1.62320
H          0.84560        0.60290       -0.82010
H          0.70580        0.47770        0.97500
H          0.71830       -1.02110       -0.04420
H          5.00100        0.67130       -1.97770
H          2.48530       -1.37790        1.92520
H          5.04560       -0.08890        1.11010
