10
66	1
N          1.08200       -0.20790        0.22000
C          2.41930        0.13450       -0.12330
N          2.93380       -0.29870       -1.21890
C          3.25140        1.00230        0.78010
F          2.55160        1.38120        1.91160
H          0.51910       -0.80320       -0.40510
H          0.65610        0.13130        1.09390
H          2.39550       -0.89570       -1.86400
H          3.56150        1.91610        0.23100
H          4.15940        0.44530        1.09320
