17
3230	2
C          0.97370        0.06950        0.06680
C          2.48100        0.22000       -0.19950
C          2.82460       -0.24890       -1.63220
N          2.47330       -1.65330       -1.82760
C          2.91210        1.65960        0.03960
N          2.78020        2.21780        1.26670
O          3.39290        2.32090       -0.87030
H          0.65650       -0.98650       -0.06410
H          0.39010        0.70660       -0.63230
H          0.72180        0.36180        1.10710
H          3.04030       -0.42300        0.51530
H          3.91610       -0.12290       -1.81330
H          2.27360        0.37080       -2.37420
H          3.04940       -2.24340       -1.18420
H          2.71520       -1.92290       -2.80850
H          2.39400        1.67740        2.05390
H          3.07640        3.19160        1.42980
