16
2510	1
C          0.89690       -0.22210        0.02400
C          2.37440       -0.10130       -0.21190
C          3.25740       -0.82250        0.50380
N          4.67340       -0.72860        0.30280
N          5.21480        0.13070       -0.65250
C          5.53670       -1.53570        1.10440
N          6.81570       -1.49130        0.97160
H          0.49080        0.76960        0.31220
H          0.65950       -0.94910        0.83000
H          0.40340       -0.55770       -0.91120
H          2.70800        0.58750       -0.97980
H          2.88110       -1.50300        1.26420
H          4.93680        1.11130       -0.42200
H          4.85530       -0.14060       -1.59500
H          5.11250       -2.20600        1.84630
H          7.27510       -0.87550        0.28580
