15
2117	2
N          2.79180        0.00140       -1.29770
C          2.20800       -0.05800        0.03850
C          2.45170       -1.42030        0.66220
C          1.40040       -2.19330        0.98040
N          3.77660       -1.90410        0.92480
C          4.89630       -1.17460        0.68090
O          5.99530       -1.64390        0.93060
H          2.62840        0.95650       -1.69050
H          2.30260       -0.68710       -1.91490
H          1.11980        0.16690       -0.03710
H          2.66160        0.72400        0.68430
H          0.38310       -1.86070        0.79720
H          1.54840       -3.17100        1.42870
H          3.88860       -2.84820        1.32770
H          4.83960       -0.17400        0.27020
