15
4086	1
N          1.06320       -0.66950       -0.04140
C          2.41840       -0.11690        0.05330
C          3.00210        0.04970        1.46440
O          3.14120       -1.20150        2.08050
C          3.33740       -0.32580       -1.13350
C          2.64350        1.03870       -0.90560
F          3.62900        1.95390       -0.57740
H          1.09080       -1.66590        0.27250
H          0.70000       -0.65770       -1.02300
H          2.34740        0.71750        2.06990
H          4.00280        0.53080        1.43780
H          2.26980       -1.41120        2.50730
H          2.86350       -1.07620       -1.80200
H          4.37420       -0.45640       -0.75570
H          2.06930        1.20760       -1.84110
