15
1422	1
C          0.88090        0.08100       -0.10150
C          2.41290        0.09350       -0.00660
O          2.99470        0.32030       -1.26490
C          2.99760       -1.18700        0.67890
O          3.65220       -0.73550        1.81100
C          3.57100        0.58800        1.94540
C          2.86870        1.15150        0.93290
H          0.54660       -0.74740       -0.76160
H          0.51540        1.04100       -0.52510
H          0.42610       -0.06170        0.90280
H          2.77360       -0.46180       -1.83540
H          3.72260       -1.71010        0.01870
H          2.19850       -1.89820        0.98110
H          4.01640        1.13740        2.76380
H          2.68050        2.21280        0.83390
