16
2670	1
C          1.06050       -0.07570       -0.09060
C          2.52200       -0.06480       -0.03040
C          3.72660       -0.05880        0.02060
C          5.19270       -0.05540        0.08530
O          5.59650        0.89940        1.03070
C          5.70120       -1.44790        0.48030
N          7.15990       -1.46800        0.53290
H          0.65060        0.49850        0.76560
H          0.69650       -1.12260       -0.04140
H          0.72550        0.38780       -1.04120
H          5.56700        0.21760       -0.92860
H          6.51370        1.18500        0.77990
H          5.34880       -2.20250       -0.25920
H          5.29870       -1.72090        1.48120
H          7.54020       -1.28410       -0.42410
H          7.46820       -2.42530        0.81900
