15
4740	1
C          1.03900        0.00950       -0.08520
C          2.53260        0.01010       -0.07870
C          3.34330        1.13080       -0.07440
C          4.63550        0.65250       -0.06920
N          5.81200        1.43410       -0.06350
C          4.57520       -0.72460       -0.07040
N          3.28500       -1.11020       -0.07630
H          2.93540       -2.09420       -0.07850
H          0.64690        1.04850       -0.08620
H          0.66480       -0.51620        0.81780
H          0.67260       -0.51490       -0.99210
H          3.02990        2.16670       -0.07510
H          5.75200        2.46250       -0.06300
H          6.73680        0.98030       -0.05980
H          5.41660       -1.40530       -0.06720
