19
702	2
C          0.67920       -0.63200        0.15470
C          1.82410        0.11220       -0.52640
C          3.15840       -0.15570        0.17960
N          4.24330        0.55520       -0.47280
C          5.59870        0.48100       -0.01690
C          6.66910        1.24300       -0.74020
N          5.92920       -0.22850        1.00720
H         -0.27180       -0.41920       -0.37750
H          0.57770       -0.30150        1.21040
H          0.86260       -1.72750        0.13110
H          1.60700        1.20250       -0.50750
H          1.89140       -0.22100       -1.58500
H          3.36830       -1.24750        0.15450
H          3.08270        0.18180        1.23660
H          4.03450        1.13830       -1.29810
H          6.25000        1.80900       -1.59820
H          7.43570        0.53690       -1.12300
H          7.15070        1.96140       -0.04410
H          5.24800       -0.77600        1.55020
