11
823	1
N          1.65460        0.89760        1.62060
C          1.70410        0.29590        0.40610
O          0.66840       -0.08350       -0.12020
N          2.88770        0.10880       -0.23370
O          4.02280        0.51100        0.31590
C          5.22940        0.34690       -0.28290
O          5.32470       -0.18950       -1.37650
H          0.74920        1.03300        2.09460
H          2.51040        1.22790        2.08920
H          2.88910       -0.35290       -1.15740
H          6.12410        0.69820        0.21890
