10
1126	1
C          0.99470       -0.03460        0.09590
C          2.48510       -0.02600        0.09620
N          3.24480        1.08390        0.09630
N          4.50450        0.67710        0.09670
C          4.47860       -0.66990        0.09680
O          3.23860       -1.09780        0.09650
H          0.60360        1.00460        0.09570
H          0.62730       -0.56100        1.00100
H          0.62770       -0.56110       -0.80940
H          5.35500       -1.30380        0.09700
