17
4841	1
N          0.99420        0.10620       -0.00660
C          2.43000       -0.13870        0.03540
C          2.96130       -1.55540        0.14460
C          4.45380       -1.14020        0.14080
N          4.38140        0.33700        0.03480
C          3.30130        0.59390        1.01220
C          3.33550        0.45110       -1.00480
H          0.56200       -0.29530        0.85620
H          0.59540       -0.38850       -0.83640
H          2.68160       -2.16820       -0.74100
H          2.65060       -2.03840        1.09760
H          4.99990       -1.57460       -0.72750
H          4.96880       -1.44610        1.08000
H          3.08030        1.68940        1.08780
H          3.41380        0.15450        2.03430
H          3.48080       -0.12810       -1.95030
H          3.11950        1.52440       -1.24170
