12
4644	1
O          0.97060        0.08380        0.08470
C          2.36970        0.09720        0.13920
C          2.93650        1.25000       -0.64570
C          3.69650        0.79360       -1.69160
C          3.67300       -0.64550       -1.66070
F          4.30810       -1.46250       -2.54010
C          2.93300       -1.06120       -0.64370
H          0.66200        0.83330        0.65770
H          2.73490        0.07740        1.18990
H          2.77440        2.29650       -0.42390
H          4.21580        1.41560       -2.40820
H          2.76000       -2.10380       -0.41090
