19
1566	1
C          0.82210       -0.02080       -0.24790
N          2.26800       -0.11780       -0.04430
C          2.85300       -1.11940       -0.94450
C          4.37830       -1.18050       -0.77050
O          4.68090       -1.56170        0.54800
C          4.99280       -2.18710       -1.75600
N          6.44480       -2.23020       -1.61160
H          0.40520        0.74820        0.43610
H          0.32700       -0.99280       -0.03050
H          0.59680        0.28830       -1.29130
H          2.43510       -0.40320        0.94900
H          2.62880       -0.84000       -1.99910
H          2.41360       -2.12270       -0.74060
H          4.77990       -0.16110       -0.98310
H          5.56830       -1.17460        0.76650
H          4.73580       -1.89940       -2.80040
H          4.57860       -3.20050       -1.55830
H          6.84250       -1.29730       -1.86800
H          6.82460       -2.93330       -2.28590
