16
715	1
N          0.49440        0.46920       -0.61270
C          1.19400       -0.23580        0.45770
C          2.36000        0.60670        0.99740
N          3.35540        0.89390       -0.02270
C          4.12690       -0.07380       -0.59510
N          5.04230        0.25690       -1.53640
O          4.00800       -1.24310       -0.25740
H         -0.32450       -0.10950       -0.90980
H          1.12820        0.56310       -1.43880
H          1.54290       -1.22570        0.09430
H          0.48200       -0.41580        1.29220
H          2.84390        0.08770        1.85310
H          1.94010        1.56520        1.37400
H          3.49470        1.87710       -0.30250
H          5.16240        1.23660       -1.83290
H          5.63150       -0.47060       -1.96810
