18
62	1
C          0.84220       -0.11390       -0.00530
C          2.37740       -0.01560       -0.06070
C          2.82710       -0.00200       -1.53820
N          2.77960        1.23640        0.59150
C          2.97620       -1.23710        0.69250
C          4.45060       -1.26700        0.70520
C          5.65700       -1.30390        0.72330
H          0.37450        0.74800       -0.52590
H          0.48680       -0.10880        1.04680
H          0.48590       -1.04550       -0.48970
H          2.33740        0.83120       -2.08520
H          2.55580       -0.95160       -2.04140
H          3.92410        0.14060       -1.62380
H          2.42620        2.04890        0.03380
H          3.81960        1.31820        0.60610
H          2.61960       -2.17850        0.22300
H          2.62200       -1.24160        1.74440
H          6.71590       -1.33610        0.74310
