16
2043	1
C          1.78410       -0.96080       -0.69120
N          3.15020       -0.54010       -0.38120
N          3.33330       -0.47390        1.00260
C          4.60130       -0.13450        1.56470
N          5.62180        0.09100        0.80980
N          4.73920       -0.05400        2.98080
N          5.95000        0.29160        3.57190
H          1.64850       -0.98580       -1.79300
H          1.04580       -0.25140       -0.25660
H          1.60220       -1.98250       -0.29400
H          3.29550        0.41960       -0.77280
H          2.55050       -0.67670        1.64540
H          5.57200        0.03570       -0.21690
H          3.92780       -0.25250        3.58320
H          6.22100        1.24400        3.23750
H          6.67410       -0.40080        3.27480
