13
220	1
C          1.65340       -1.13480        0.45220
C          2.44110       -0.18160       -0.05500
C          3.14750        0.81060        0.82560
C          4.63310        0.67940        0.63870
C          5.37690        1.69530        0.19070
H          1.15660       -1.83570       -0.21070
H          1.49940       -1.22290        1.52340
H          2.57380       -0.12010       -1.13150
H          2.91330        0.63840        1.89860
H          2.79430        1.83000        0.55730
H          5.11330       -0.26580        0.87590
H          4.92770        2.65280       -0.05470
H          6.44760        1.56880        0.06720
