18
1885	1
C          0.94190        0.01080       -0.00350
C          2.46440        0.02060        0.10400
C          3.11250       -0.13390       -1.28060
C          4.65410       -0.16010       -1.22010
N          5.21530       -0.37950       -2.55330
C          5.19470        1.09840       -0.67830
C          5.64080        2.12730       -0.23520
H          0.49500        0.14610        1.00380
H          0.59020       -0.95650       -0.42180
H          0.59650        0.83800       -0.65980
H          2.78360       -0.81500        0.76470
H          2.77980        0.98070        0.56550
H          2.78190        0.69860       -1.94070
H          2.76160       -1.09180       -1.72430
H          4.97830       -0.99350       -0.55900
H          4.94290        0.40310       -3.19310
H          4.84150       -1.27260       -2.94960
H          6.03040        3.03100        0.15390
