18
5047	1
N          1.00460       -0.00260        0.02220
C          2.46680       -0.07220       -0.06810
C          2.96190       -1.48890       -0.41910
C          2.58560       -1.84330       -1.86120
C          3.09180       -0.73170       -2.79290
O          2.53470        0.52320       -2.43340
C          2.98640        0.90250       -1.14210
H          0.66330       -0.68280        0.73930
H          0.54370       -0.21090       -0.89140
H          2.87930        0.21920        0.92300
H          2.56410       -2.24250        0.29410
H          4.07220       -1.50040       -0.34040
H          1.48390       -1.93320       -1.96160
H          3.03260       -2.82020       -2.14410
H          2.78380       -0.97170       -3.83230
H          4.20490       -0.68320       -2.79430
H          2.61540        1.92480       -0.91700
H          4.09900        0.96230       -1.12120
