14
1073	1
C          1.01320        0.09320        0.04760
C          2.50460        0.08760       -0.06140
N          3.20180       -0.97440       -0.05290
C          4.61360       -0.67020       -0.17350
C          4.66250        0.88380       -0.26440
N          3.27360        1.23930       -0.18240
H          0.62310       -0.94320        0.13440
H          0.57790        0.56850       -0.85590
H          0.71010        0.66960        0.94630
H          5.02140       -1.13860       -1.09470
H          5.15470       -1.03640        0.72500
H          5.08330        1.22360       -1.23480
H          5.21730        1.32610        0.59050
H          2.90400        2.20070       -0.20930
