13
1486	1
N          0.98090        0.00580       -0.08900
C          2.44260       -0.10510       -0.02080
C          3.24040       -0.72060       -1.19400
N          2.39080       -1.42740       -2.15980
C          3.09430        0.79670       -1.05900
F          2.33360        1.36660       -2.06680
F          4.32310        1.35990       -0.76620
H          0.57290       -0.73460        0.52450
H          0.57770       -0.10410       -1.04420
H          2.91150        0.15050        0.95330
H          4.03350       -1.32240       -0.70210
H          1.78460       -0.80690       -2.74040
H          1.82640       -2.16320       -1.67690
