18
189	1
C          0.87030        0.00260        0.19720
C          2.39100       -0.14530        0.03140
C          2.71810       -1.53070       -0.53980
C          2.97080        0.95210       -0.88530
C          2.77030        2.33100       -0.30710
F          3.30660        2.62830        0.90650
C          2.07880        3.26730       -0.96480
H          0.47960       -0.79280        0.86720
H          0.35930       -0.07560       -0.78650
H          0.61780        0.98260        0.65360
H          2.86720       -0.06780        1.03420
H          2.26100       -1.66090       -1.54450
H          2.33200       -2.32530        0.13400
H          3.81800       -1.65960       -0.62850
H          2.50920        0.87000       -1.89510
H          4.06540        0.79570       -0.99820
H          1.63920        3.06010       -1.93560
H          1.94890        4.25250       -0.52880
