11
1811	1
C         -1.38860       -0.07550       -0.01780
C         -0.75140        1.16650        0.00500
C          0.64470        1.21920        0.04420
N          1.37070        0.06820        0.05990
C          0.76830       -1.15210        0.03820
C         -0.62560       -1.24470       -0.00110
H         -2.46900       -0.13180       -0.04820
H         -1.33270        2.07940       -0.00760
H          1.15060        2.17530        0.06220
H          1.37090       -2.05040        0.05150
H         -1.10890       -2.21300       -0.01850
