19
6419	1
C          1.07580       -0.50990        0.23440
N          2.53490       -0.61760        0.27090
C          3.07710       -0.76960       -1.08730
C          4.61680       -0.66590       -1.13750
C          5.25860        0.54790       -0.49130
C          6.27400       -0.47170       -0.00050
N          5.39710       -1.60640       -0.32160
H          0.68750       -0.41320        1.27040
H          0.62350       -1.41380       -0.23030
H          0.76840        0.39530       -0.33210
H          2.76770       -1.46430        0.83780
H          2.68260        0.04320       -1.73710
H          2.76270       -1.74620       -1.51860
H          4.97410       -0.76540       -2.19080
H          4.65800        0.87690        0.38470
H          5.61230        1.36740       -1.15210
H          6.56410       -0.37890        1.07010
H          7.15570       -0.51150       -0.68200
H          4.88340       -1.83530        0.55880
