14
6023	1
C          0.95010        0.09070       -0.07630
N          2.40930        0.07400       -0.07180
C          3.22400        1.14190       -0.06730
C          4.52720        0.68730       -0.06410
N          4.52480       -0.66300       -0.06670
C          3.21990       -1.00300       -0.07140
N          2.76640       -2.34260       -0.07540
H          0.57130        1.13510       -0.07560
H          0.56710       -0.42780        0.82770
H          0.57260       -0.42460       -0.98440
H          2.89800        2.17410       -0.06630
H          5.42050        1.29720       -0.06020
H          3.44610       -3.11650       -0.07480
H          1.75930       -2.55690       -0.07910
