16
2456	1
C          3.91850        0.08220        1.30960
O          3.44980        1.36710        0.96220
C          3.44970        1.53130       -0.44430
C          2.37350        2.54860       -0.81420
C          4.79400        2.03190       -0.89940
N          5.48040        1.35950       -1.75110
O          6.65660        1.79370       -2.14940
H          3.99170        0.02440        2.41490
H          4.93920       -0.10440        0.90780
H          3.20240       -0.70420        0.98470
H          3.18280        0.58520       -0.97680
H          2.57160        3.52440       -0.32020
H          1.37860        2.17990       -0.48510
H          2.34710        2.69950       -1.91500
H          5.18180        2.96610       -0.50000
H          7.16850        1.28290       -2.79060
