12
1105	1
C          3.11250       -0.79810       -1.19460
C          2.45170        0.02520       -0.12620
O          1.23360        0.17150       -0.12440
C          3.24060        0.66880        0.93680
C          4.58590        0.58260        1.01770
C          5.29620        1.22190        2.07180
N          5.86410        1.74270        2.92880
H          2.36350       -1.20750       -1.88100
H          3.66010       -1.64330       -0.73910
H          3.81170       -0.17240       -1.77810
H          2.67100        1.22630        1.66800
H          5.17850        0.03710        0.30580
