17
2753	2
C          2.93590        0.69800        0.54820
C          4.39410        0.34400        0.29750
N          4.48480       -1.01150       -0.20500
C          5.59640       -1.60020       -0.51160
C          6.92750       -0.90100       -0.36560
N          5.56340       -2.93610       -0.99670
O          4.39500       -3.57790       -1.14460
H          2.86370        1.73690        0.93350
H          2.49820        0.00560        1.29860
H          2.35680        0.62460       -0.39700
H          4.95500        0.43380        1.25320
H          4.81360        1.05470       -0.44740
H          6.95310        0.00650       -1.00410
H          7.76070       -1.56520       -0.67670
H          7.09260       -0.61380        0.69370
H          6.43850       -3.41700       -1.25240
H          4.27260       -4.08190       -0.29960
