16
5051	1
N          1.07690       -0.00690        0.00230
C          2.54220       -0.03510       -0.05330
C          3.05480       -1.41770       -0.47690
O          2.63510       -1.70800       -1.79530
C          3.15540       -0.72660       -2.67820
O          2.63690        0.56310       -2.39160
C          3.05480        0.95870       -1.09980
H          0.74320       -0.69670        0.71350
H          0.65870       -0.25880       -0.92200
H          2.93770        0.23190        0.95140
H          2.65880       -2.19150        0.21440
H          4.16610       -1.46920       -0.40820
H          2.83280       -0.99630       -3.70460
H          4.27030       -0.73520       -2.70740
H          2.65360        1.96990       -0.87690
H          4.16580        1.03920       -1.06460
