20
3138	1
C          1.25460        0.32320        0.86200
C          2.43970       -0.17410        0.01010
C          3.05380       -1.43940        0.63940
O          4.18870       -1.84620       -0.07690
N          2.09600       -0.39690       -1.42230
C          0.96590       -1.31440       -1.65910
C          1.89120        0.86540       -2.15260
H          1.59570        0.52130        1.90050
H          0.44410       -0.43290        0.91130
H          0.84510        1.27220        0.46160
H          3.23440        0.60460        0.06230
H          2.32020       -2.27240        0.71710
H          3.36890       -1.21860        1.68190
H          3.86680       -2.40890       -0.82860
H          1.13650       -2.29540       -1.17450
H          0.86630       -1.51580       -2.74740
H          0.00700       -0.88270       -1.30090
H          2.76610        1.53740       -2.02200
H          0.97210        1.38920       -1.81390
H          1.79740        0.66370       -3.24130
