15
154	2
C          3.14620        0.63070        1.19380
N          3.68020        0.08150       -0.04950
N          3.73780        1.09510       -1.00220
C          4.97780        1.49090       -1.58320
C          4.99430        2.57690       -2.61580
N          6.08480        0.93400       -1.23220
H          3.08180       -0.17500        1.95510
H          2.12970        1.05280        1.03520
H          3.82250        1.42290        1.58020
H          3.03470       -0.65990       -0.40740
H          2.86880        1.56710       -1.29940
H          4.38590        2.26600       -3.49060
H          6.03030        2.78820       -2.95760
H          4.56450        3.50490       -2.18430
H          6.12160        0.18540       -0.52600
