19
14	1
C          1.02810       -0.03810       -0.13090
C          2.55180       -0.21190       -0.05130
C          2.90050       -1.69720       -0.24290
F          3.12460        0.51630       -1.08220
C          3.05820        0.33900        1.30470
C          4.58540        0.29040        1.46810
N          4.97310        0.87510        2.74780
H          0.64820       -0.39800       -1.11110
H          0.75520        1.03430       -0.03060
H          0.52310       -0.61030        0.67740
H          2.50020       -2.06110       -1.21350
H          2.46430       -2.31150        0.57390
H          3.99760       -1.85380       -0.26630
H          2.58780       -0.22680        2.13930
H          2.74130        1.40250        1.38700
H          5.07520        0.85150        0.64150
H          4.93900       -0.76110        1.44500
H          4.71800        1.88960        2.75420
H          6.01280        0.81080        2.84060
