13
3710	1
C          1.78550        0.40440        0.05720
O          3.10970        0.49980        0.43790
C          3.56760        1.03620        1.60670
C          2.72980        1.54300        2.53690
C          5.03310        1.04900        1.83410
O          5.85540        0.53820        0.89310
O          5.50360        1.51630        2.86200
H          1.73040       -0.07650       -0.94090
H          1.33130        1.41570       -0.01400
H          1.22050       -0.22120        0.78080
H          1.65530        1.54520        2.39440
H          3.11170        1.96580        3.46110
H          6.81540        0.53400        1.01580
