18
4167	1
C          0.76720       -0.13700       -0.04440
C          2.30290       -0.09740       -0.15770
N          2.71580       -0.29810       -1.54700
C          2.97220        1.18700        0.39380
C          4.49830        1.21540        0.49920
C          2.28950        2.49980        0.29980
O          2.34030        1.73870        1.50800
H          0.39060       -1.11980       -0.39930
H          0.29350        0.64960       -0.66660
H          0.45240       -0.01240        1.01310
H          2.69170       -0.94470        0.44930
H          2.33220        0.46970       -2.14570
H          2.34710       -1.21180       -1.89830
H          4.94390        1.12490       -0.51320
H          4.84300        0.36330        1.12170
H          4.86330        2.15640        0.96450
H          1.22160        2.57530        0.01750
H          2.87360        3.42660        0.48010
