21
4171	1
C          1.09310       -0.18740        0.19050
C          2.61940       -0.01440        0.08480
C          2.93620        1.44390       -0.29430
C          3.24240       -0.30590        1.47300
C          3.12110       -0.92670       -1.07740
C          4.56680       -1.37890       -1.10920
C          3.43290       -2.38500       -0.80870
H          0.67100        0.48230        0.97100
H          0.83890       -1.23650        0.45570
H          0.60010        0.05570       -0.77600
H          2.55150        2.14670        0.47630
H          2.46880        1.70950       -1.26750
H          4.03420        1.59150       -0.38470
H          2.82600        0.39040        2.23310
H          4.34100       -0.15730        1.47030
H          3.01180       -1.33350        1.81960
H          2.70220       -0.75700       -2.09350
H          5.21220       -1.30780       -0.21080
H          4.98900       -1.59690       -2.11390
H          3.57440       -2.76430        0.22320
H          3.32150       -3.07540       -1.67230
