8
5879	1
O          1.16930        0.35470        0.34910
N          2.50020        0.20220        0.15090
N          3.39250        1.17530        0.16630
N          4.59120        0.64430       -0.06070
O          4.45100       -0.64690       -0.21500
C          3.18150       -0.93270       -0.08820
O          2.69430       -2.04540       -0.17190
H          0.79550        0.52690       -0.55270
