18
438	1
C          0.87240       -0.11530        0.24270
C          2.34260       -0.00960       -0.18920
O          3.03210       -1.08980        0.40120
C          2.41250       -0.10610       -1.73700
N          3.78810       -0.02200       -2.22840
C          2.87340        1.33880        0.28750
C          3.88690        1.47490        1.15410
H          0.43850       -1.08580       -0.08190
H          0.26620        0.70460       -0.20080
H          0.78960       -0.05590        1.34960
H          3.96030       -1.10460        0.05090
H          1.80520        0.70410       -2.20150
H          1.98020       -1.07930       -2.05990
H          4.17760        0.92710       -2.02640
H          3.78120       -0.14470       -3.26700
H          2.40110        2.24050       -0.09380
H          4.39920        0.61860        1.57720
H          4.21090        2.46750        1.45080
