10
5389	1
N          1.06930       -0.02990       -0.12350
C          2.33810        0.00580        0.06280
C          3.02310        1.21640        0.13920
C          4.39660        1.17650        0.34250
O          5.01340        0.00750        0.45710
N          4.35260       -1.12580        0.38280
N          3.03340       -1.14940        0.18880
H          0.51060        0.83160       -0.22330
H          2.50940        2.16560        0.04420
H          4.96410        2.09530        0.40750
