11
2491	1
F          0.71530        1.81040       -1.38890
C          1.98000        1.35050       -1.57370
C          2.94680        1.69760       -0.71510
C          4.37360        1.22350       -0.85680
F          4.52960        0.38900       -1.95230
C          5.29640        2.39620       -1.00210
O          5.36540        3.24120       -0.12320
H          2.18420        0.70510       -2.42160
H          2.69640        2.34540        0.12040
H          4.65270        0.65480        0.05520
H          5.91680        2.49350       -1.88740
