15
4234	1
O          0.95810        0.07680       -0.11810
C          2.33730        0.01410        0.11780
C          2.87380        1.12740        1.02320
O          4.05200        0.59150        1.48570
C          4.00330       -0.75060        1.47040
C          4.94410       -1.51290        2.03040
C          2.76610       -1.27140        0.82860
H          0.80900        0.88220       -0.67800
H          2.91390        0.05630       -0.83840
H          2.20010        1.27590        1.89660
H          3.01320        2.08400        0.47650
H          5.80790       -1.05600        2.50280
H          4.85390       -2.59460        2.01890
H          2.07220       -1.57910        1.64100
H          2.91580       -2.08630        0.08760
