12
87	1
C          0.87830       -0.00350        0.10590
C          2.39240        0.03100       -0.07570
F          2.75870        1.26580       -0.58720
F          3.00440       -0.14180        1.15260
C          2.82970       -1.07280       -0.99740
N          3.44300       -0.80580       -2.09400
O          3.82380       -1.77570       -2.89710
H          0.56400        0.80860        0.79530
H          0.56110       -0.97720        0.53760
H          0.36940        0.14280       -0.87100
H          2.62270       -2.10560       -0.72670
H          4.28380       -1.56810       -3.72140
