14
3373	1
O          0.95740        0.12560        0.09790
C          2.34080        0.04000       -0.13000
C          2.60460       -1.00490       -1.18300
C          3.35110       -2.08380       -0.92870
C          2.91150        1.36210       -0.59560
F          4.24750        1.44250       -0.83750
C          2.15880        2.45640       -0.77650
H          0.70970       -0.65620        0.65820
H          2.85540       -0.20810        0.82780
H          2.17560       -0.87800       -2.17320
H          3.79340       -2.24040        0.05040
H          3.52250       -2.81930       -1.70800
H          1.08890        2.45060       -0.59820
H          2.62140        3.37940       -1.11090
