11
1704	1
F          0.93050       -0.05760       -0.12490
C          2.31050       -0.11780       -0.04070
C          3.04570       -0.50870       -1.30880
C          2.87410        0.96550       -0.94950
C          4.22030        1.53280       -0.60300
O          5.12800        1.51630       -1.41950
H          2.79460        0.01260        0.95140
H          2.28150       -1.00190       -1.94720
H          3.90710       -1.10310       -0.93400
H          2.31720        1.39800       -1.80810
H          4.38330        1.97720        0.37320
