14
2087	1
C          0.89780        0.33930       -0.00100
C          2.40550        0.09990       -0.00850
C          2.78120       -1.35720       -0.12820
O          1.92040       -2.22430       -0.19260
C          4.22910       -1.74620       -0.19590
C          4.93590       -1.30530        1.01180
N          5.49150       -0.94770        1.96350
H          0.69860        1.42850        0.08300
H          0.42910       -0.17740        0.86310
H          0.44600       -0.03380       -0.94450
H          2.83520        0.50800        0.93140
H          2.85050        0.64500       -0.86740
H          4.68440       -1.25610       -1.08500
H          4.33380       -2.84390       -0.30090
