9
1338	1
F          0.91710       -0.11320        0.28530
C          2.27310        0.02950        0.05590
F          2.66740        0.00370       -1.26910
C          3.03690        1.06740        0.99410
O          3.67090        0.01220        1.62860
C          3.06810       -0.87280        0.88320
O          3.17970       -2.08760        0.91750
H          2.37390        1.60870        1.70540
H          3.77760        1.70250        0.45880
