22
1557	1
C          0.02120       -0.96890       -0.58290
C          1.41270       -1.34500       -1.09560
C          2.46510       -1.51750        0.02930
C          2.09240       -2.65450        0.99540
C          3.85700       -1.80490       -0.57500
N          4.30340       -0.69210       -1.42230
C          5.59910       -0.99070       -2.03270
H         -0.65900       -0.81450       -1.44730
H          0.06840       -0.02690        0.00360
H         -0.41250       -1.77440        0.04320
H          1.74000       -0.52740       -1.77350
H          1.33800       -2.28010       -1.69300
H          2.52810       -0.57350        0.61610
H          2.00710       -3.62020        0.45210
H          1.13590       -2.44450        1.51490
H          2.87030       -2.75560        1.78260
H          3.80830       -2.74340       -1.17350
H          4.59030       -1.95260        0.25080
H          4.40980        0.16500       -0.82960
H          5.51630       -1.87550       -2.70040
H          6.36940       -1.18060       -1.25290
H          5.92570       -0.12460       -2.64640
