11
219	1
C          1.10500        0.04860       -0.02650
O          2.51420        0.06030       -0.03010
C          2.96640        1.29840       -0.52990
C          4.41040        1.29840       -0.52990
C          5.60060        1.29840       -0.52990
H          0.76540       -0.93050        0.36940
H          0.69610        0.14220       -1.05730
H          0.69470        0.83240        0.64860
H          2.63100        2.13830        0.11890
H          2.63110        1.45260       -1.58000
H          6.65890        1.29830       -0.52990
