17
2721	1
C          0.85310        0.18060        0.92150
C          1.78890       -0.09910       -0.22960
C          2.86210       -1.16180       -0.07610
C          2.26190       -2.55600        0.13860
N          3.32380       -3.54720        0.28080
C          1.67330        0.60800       -1.36990
F          2.50210        0.38910       -2.42580
H          0.26380       -0.72470        1.17040
H          0.13450        0.99530        0.68800
H          1.44390        0.48560        1.81030
H          3.50680       -0.89540        0.78910
H          3.51150       -1.20470       -0.97660
H          1.61610       -2.82340       -0.72770
H          1.64390       -2.56700        1.06140
H          3.87060       -3.59720       -0.60950
H          2.88450       -4.48350        0.43410
H          0.90710        1.37100       -1.46830
