15
3560	1
C          3.46310        1.91980       -0.67470
N          2.95410        0.63840       -1.11650
O          1.81880        0.60740       -1.83370
C          3.64550       -0.58490       -0.81790
N          3.18120       -1.70950       -1.24340
N          4.85180       -0.57440       -0.04880
N          5.53150       -1.75360        0.23860
H          2.79330        2.73830       -1.01480
H          4.47240        2.09570       -1.10390
H          3.51180        1.94800        0.43430
H          1.09250        0.53780       -1.16170
H          2.31790       -1.77090       -1.80160
H          5.23760        0.31070        0.30580
H          5.80440       -2.20760       -0.66300
H          4.88970       -2.38630        0.76900
