13
846	1
O          0.95550        0.47440        0.20240
C          2.29920        0.44050        0.18550
O          2.93090        1.43450       -0.14650
C          2.99680       -0.82740        0.57320
C          4.51880       -0.69610        0.49630
C          5.15660       -1.96420        0.85670
C          5.67790       -3.00700        1.16010
H          0.48270        1.27690       -0.04900
H          2.65510       -1.63180       -0.11390
H          2.69500       -1.08750        1.61040
H          4.86220        0.10380        1.18570
H          4.81820       -0.43590       -0.53880
H          6.14980       -3.90770        1.44950
