15
2610	2
C          0.70310        1.00850       -0.25030
N          2.11930        0.78050       -0.43540
C          2.96320        1.68600       -1.15880
N          2.49350        2.76320       -1.68780
C          4.40490        1.39730       -1.31290
N          4.92110        0.33450       -0.80240
N          6.26040        0.05390       -0.93800
H          0.26110        0.17720        0.33890
H          0.19270        1.05130       -1.23560
H          0.53980        1.95730        0.30310
H          2.52950       -0.07190       -0.02580
H          1.50210        3.03060       -1.62230
H          5.02800        2.09700       -1.86550
H          6.64600       -0.80370       -0.51900
H          6.88860        0.68930       -1.45370
