15
1850	1
C         -0.45850        0.80620        0.10910
C         -0.37270       -0.66880       -0.24740
C          0.88750        0.09820        0.11350
N          1.34640       -0.36140        1.43470
C          2.72570       -0.90250        1.39290
C          2.49940        0.45790        1.87260
H         -0.65160        1.11170        1.16060
H         -0.35610        1.57560       -0.68540
H         -0.69740       -0.71710       -1.30860
H         -0.97350       -1.17500        0.53860
H          1.54320        0.00140       -0.78130
H          3.11940       -1.03850        0.36200
H          2.83880       -1.68100        2.17600
H          2.75050        1.29040        1.17600
H          2.46940        0.58500        2.97490
