17
800	2
C          1.32770        1.26190        0.57090
C          2.81390        1.03960        0.51040
N          3.62690        2.03770        0.55900
N          3.31560       -0.28930        0.39870
C          4.73920       -0.55870        0.33550
C          4.99400       -2.04010        0.24670
C          5.64290       -2.58070       -0.78890
H          1.07450        2.34000        0.65700
H          0.91100        0.73000        1.45140
H          0.85730        0.86130       -0.35110
H          3.28890        3.00810        0.63970
H          2.64330       -1.07170        0.36170
H          5.22910       -0.17500        1.25580
H          5.17100       -0.02900       -0.54240
H          4.64100       -2.68410        1.04690
H          6.00860       -1.96440       -1.60450
H          5.81070       -3.65230       -0.82250
