12
266	1
C          1.55320        0.47410       -0.44560
O          2.89100        0.32560       -0.17280
N          3.34760        0.50650        1.04930
C          4.59850        0.36750        1.30280
C          5.11480        0.57320        2.69060
H          1.37590        0.28010       -1.52330
H          1.23000        1.50950       -0.20620
H          0.96120       -0.24910        0.15460
H          5.29210        0.09910        0.51020
H          4.29150        0.84170        3.38690
H          5.86430        1.39150        2.68670
H          5.59680       -0.36100        3.04600
