15
123	1
N          1.12550        0.06510        0.00800
C          2.57410        0.23220        0.05510
C          3.20670       -0.86290        0.91990
C          4.71130       -0.72960        0.96580
N          5.53060       -1.75640        0.43190
N          5.26090        0.30620        1.49570
H          0.72760        0.79780       -0.62270
H          0.73220        0.22190        0.96410
H          2.81660        1.24060        0.45720
H          2.98000        0.15630       -0.97770
H          2.93010       -1.84930        0.48850
H          2.80670       -0.81510        1.95650
H          5.11060       -2.59270        0.00180
H          6.55720       -1.67010        0.46150
H          4.69730        1.06690        1.90340
