13
1511	1
C          0.93750       -0.03290        0.06270
C          2.45730       -0.07000        0.03410
C          2.93860       -1.14740       -0.79830
C          3.33530       -2.03530       -1.48430
C          3.81660       -3.11260       -2.31670
F          4.11550       -2.61300       -3.54650
H          0.58810        0.78820        0.69710
H          0.52610       -0.96770        0.45890
H          0.52610        0.11450       -0.94190
H          2.83290       -0.18550        1.05690
H          2.83290        0.89050       -0.33580
H          3.06330       -3.89390       -2.44770
H          4.72460       -3.56650       -1.91090
