15
2360	1
C          0.91090        0.19080        0.06910
O          2.32080        0.09240        0.03030
C          2.82970        0.88140       -1.03260
C          4.34430        0.84590       -1.06690
C          5.08650        0.14380       -0.18650
C          5.02400        1.60210       -2.09310
C          5.59380        2.23140       -2.94750
H          0.53840       -0.51410        0.84530
H          0.44030       -0.10950       -0.89500
H          0.57950        1.21140        0.36400
H          2.51260        1.94590       -0.91900
H          2.45510        0.49840       -2.01180
H          4.62140       -0.43690        0.60060
H          6.17110        0.14390       -0.24560
H          6.08940        2.78390       -3.69730
