10
4952	1
O          1.23420       -0.14110        0.53670
C          2.36910       -0.06850        0.09410
C          3.30940        1.04770       -0.05990
C          4.12750       -0.15840       -0.71510
O          3.08470       -1.02120       -0.43780
C          4.30060       -0.02440       -2.17050
N          4.42830        0.07130       -3.31650
H          3.62130        1.37490        0.95500
H          2.89350        1.80760       -0.75520
H          5.05950       -0.42970       -0.17020
