11
4624	1
O          1.03770       -0.08760       -0.06220
C          2.38220       -0.04420       -0.05740
N          3.10640        1.09650       -0.04870
C          4.37520        0.63410       -0.04700
N          5.41360        1.38370       -0.03940
N          4.41940       -0.70910       -0.05420
H          5.26480       -1.32260       -0.05470
N          3.17040       -1.13420       -0.06070
H          2.87390       -2.13540       -0.06720
H          0.51730        0.72770       -0.05960
H          5.32250        2.41020       -0.03410
