12
3684	2
N          0.94930       -0.17120        0.12520
N          2.32380       -0.14340        0.01930
C          2.99530       -0.45640       -1.04680
N          2.36360       -0.87500       -2.25820
C          4.47380       -0.37380       -0.99740
O          5.20850       -0.69090       -2.08510
O          5.03340       -0.01770        0.02980
H          0.51160        0.09620        1.01770
H          0.33420       -0.44730       -0.64790
H          1.34670       -0.95480       -2.36270
H          2.93800       -1.11350       -3.07920
H          6.17490       -0.64190       -2.06850
