12
995	1
C          0.96930       -0.03880       -0.07030
C          2.29640       -0.01540        0.06940
C          3.20600       -1.20920        0.05860
O          4.45640       -0.62530        0.23970
C          4.38630        0.71850        0.35070
C          3.10310        1.16070        0.25660
H          0.45060       -0.98230       -0.20720
H          0.39760        0.88380       -0.04840
H          3.16050       -1.74070       -0.91560
H          2.97260       -1.90020        0.89620
H          5.24760        1.35640        0.49620
H          2.77630        2.19080        0.31340
