17
885	1
C          0.87240       -0.15320        0.03450
N          2.33320        0.02820       -0.04180
C          2.71220        0.41850       -1.40890
C          2.80130        1.04330        0.92290
C          2.64450        0.55120        2.33850
C          1.90390        1.21380        3.23240
F          1.78490        0.73990        4.49980
H          0.54330       -0.92670       -0.69250
H          0.33560        0.79720       -0.18190
H          0.57550       -0.51430        1.04160
H          2.39600       -0.36260       -2.13350
H          3.81680        0.51000       -1.49040
H          2.24700        1.38830       -1.69560
H          2.26800        2.00890        0.76160
H          3.88780        1.22920        0.77440
H          3.14700       -0.36460        2.63580
H          1.39130        2.13130        2.95950
