11
2385	2
C          1.57920        0.96650        0.14760
N          2.80730        0.73750       -0.15780
N          3.51150       -0.26610        0.47140
C          4.81440       -0.50400        0.17800
O          5.40790       -1.40250        0.75330
C          5.52010        0.28730       -0.80140
C          6.10580        0.95040       -1.61980
H          1.02880        1.75520       -0.35250
H          1.08100        0.37480        0.91080
H          3.04500       -0.85210        1.18150
H          6.61550        1.53520       -2.33900
