10
1212	2
N          0.96050       -0.02560        0.06720
C          2.31800        0.02500        0.01110
O          2.92410        0.73530       -0.77650
C          3.02400       -0.81410        0.94150
C          3.61880       -1.51240        1.71590
C          4.38280       -2.40120        2.70140
C          4.98610       -3.09580        3.47150
H          0.43820        0.55350       -0.57490
H          0.46790       -0.61560        0.72140
H          5.52590       -3.71060        4.15330
