14
2318	2
C          0.93220        0.66610        0.44490
C          2.24120        0.47360        0.26230
N          3.19840        1.24100        0.99010
C          4.53840        1.06640        0.82430
O          4.96140        0.23270        0.03350
C          5.48920        1.89320        1.60830
C          6.81520        1.76370        1.48520
H          0.21360        0.07600       -0.11470
H          0.57220        1.40930        1.14970
H          2.56540       -0.27900       -0.45140
H          2.86480        1.94970        1.66230
H          5.09890        2.62860        2.30590
H          7.25040        1.04220        0.80060
H          7.47600        2.38840        2.07750
