14
1453	1
C          4.55790        1.41880        0.66640
N          4.53270       -0.01520        0.53750
N          4.66150       -0.59260       -0.70480
C          4.64290       -1.87150       -0.85430
C          4.78490       -2.49000       -2.21620
O          4.95040       -1.51640       -3.21310
H          4.44140        1.70620        1.73280
H          3.72640        1.86180        0.07920
H          5.52550        1.81130        0.28940
H          4.41770       -0.59940        1.38090
H          4.52440       -2.52450        0.00650
H          3.89890       -3.12630       -2.43870
H          5.67580       -3.15170       -2.21870
H          4.04540       -1.16430       -3.42060
