15
2333	1
C          2.51380        1.38210       -1.26010
C          3.71960        1.03500       -0.81270
O          4.27270       -0.13660       -1.22180
C          5.48860       -0.65680       -0.87290
C          6.33710       -0.03520       -0.02930
C          5.89320       -1.96450       -1.44810
C          5.10490       -2.63970       -2.29150
H          2.06160        2.31550       -0.94050
H          1.97450        0.73620       -1.94630
H          4.22730        1.70380       -0.12990
H          6.11500        0.91710        0.42960
H          7.29290       -0.48830        0.21820
H          6.85610       -2.39300       -1.18180
H          4.13440       -2.25510       -2.58890
H          5.43440       -3.59300       -2.69200
