12
1141	1
N          1.02950        0.08790       -0.00920
C          2.44190        0.08000       -0.00400
C          3.26040        1.18780       -0.00080
C          4.55400        0.70100        0.00400
N          4.53660       -0.64820        0.00380
H          5.37040       -1.27640        0.00680
C          3.24760       -1.03610       -0.00110
H          0.51540        0.98070       -0.01100
H          0.50530       -0.79890       -0.01130
H          2.95570        2.22590       -0.00180
H          5.45680        1.29740        0.00740
H          2.91910       -2.06730       -0.00240
