13
1831	1
C          0.63440        1.27950       -0.15340
N         -0.82260        1.42250       -0.12590
C         -1.41700        0.08440       -0.13860
C         -0.33830       -0.87190        0.32610
O          0.59440       -1.01660       -0.71060
C          0.93930       -0.12750        0.31700
H          1.08240        2.02460        0.53630
H          1.03760        1.43540       -1.17910
H         -1.18450        2.03320       -0.89460
H         -1.76200       -0.19600       -1.15910
H         -2.27890        0.06630        0.56010
H         -0.53210       -1.90010        0.69520
H          1.93310       -0.46360        0.67820
