15
850	1
C          0.89460       -0.60780       -0.02580
C          2.31260       -0.03550       -0.03000
C          3.01710        0.28860        1.29330
N          3.31550       -0.93570        2.02890
C          3.16320       -0.32530       -1.20370
O          2.51280        0.93160       -1.01520
H          0.88830       -1.60210        0.46590
H          0.49830       -0.72350       -1.05770
H          0.22160        0.07650        0.53190
H          2.36800        0.95290        1.90530
H          3.96980        0.83000        1.09970
H          2.42240       -1.39940        2.31050
H          3.82510       -0.67900        2.90480
H          2.71100       -0.79500       -2.10220
H          4.25610       -0.14030       -1.14130
