10
947	3
O          1.30500        0.10660        0.35700
C          2.48140        0.04280        0.03760
C          3.28330       -1.21630       -0.10470
N          4.56740       -0.64290       -0.49330
C          4.49920        0.63600       -0.55380
N          3.23060        1.11140       -0.23460
H          2.87930       -1.86970       -0.90640
H          3.36480       -1.75990        0.86000
H          5.33630        1.26610       -0.82300
H          2.92730        2.09590       -0.21220
