20
1496	1
C          2.99790        0.25030        1.25450
C          2.42810        0.46360       -0.14830
C          2.97400       -0.53870       -1.19480
C          2.25520       -0.32830       -2.53690
C          4.51580       -0.49720       -1.36980
C          5.08180        0.85390       -1.82010
F          6.45580        0.75680       -1.94260
H          2.52230        0.96640        1.95730
H          4.09150        0.43190        1.27610
H          2.78630       -0.78270        1.60330
H          2.62530        1.50890       -0.46780
H          1.32520        0.33640       -0.08050
H          2.71620       -1.56520       -0.85020
H          2.43120        0.69170       -2.93680
H          1.15980       -0.46130       -2.40800
H          2.60450       -1.07470       -3.28180
H          4.80860       -1.26760       -2.11640
H          5.00330       -0.77960       -0.41360
H          4.85500        1.64340       -1.07500
H          4.66680        1.15070       -2.80430
