13
5884	2
C          0.95920       -0.03850       -0.22960
C          2.28000       -0.07150       -0.03780
C          3.11010       -1.26360        0.17730
C          4.42530       -0.83520        0.33110
N          4.50630        0.57040        0.22920
C          3.20560        1.05450        0.00390
N          2.90630        2.29490       -0.13910
H          0.38460       -0.95920       -0.23760
H          0.44860        0.90740       -0.37910
H          2.77620       -2.29230        0.21250
H          5.27420       -1.48290        0.50500
H          5.36470        1.13470        0.30660
H          3.63620        3.02050       -0.09320
