13
3629	1
C          0.75430        0.02200        0.27280
N          2.18970        0.06720       -0.00260
N          2.85170        1.27800        0.24950
C          2.93240       -1.07420       -0.31600
O          4.16090       -1.03340       -0.45580
C          2.26400       -2.34170       -0.46740
C          1.70710       -3.40190       -0.59430
H          0.34140        1.04150        0.29160
H          0.59490       -0.45450        1.24650
H          0.23410       -0.55270       -0.49890
H          3.15710        1.65480       -0.65760
H          3.74550        1.03970        0.71340
H          1.22830       -4.34410       -0.70980
