17
4573	1
C          0.90990       -0.00210       -0.10770
C          2.42710        0.01920        0.08250
C          2.96080       -1.24410        0.81550
O          3.57370       -0.75760        1.95380
C          3.48110        0.57390        2.03910
C          4.04930        1.36430        3.17490
C          2.84440        1.09580        1.01960
H          0.62710       -0.84510       -0.77300
H          0.57340        0.94680       -0.57700
H          0.39080       -0.12360        0.86780
H          2.93910        0.16460       -0.89370
H          3.70300       -1.78160        0.18740
H          2.14530       -1.93900        1.11260
H          4.53790        0.68410        3.90350
H          3.23770        1.92050        3.68920
H          4.80310        2.08430        2.79240
H          2.66270        2.15450        0.88180
