13
369	1
C          0.82520        0.09630       -0.26120
N          2.25690        0.05790       -0.03870
O          2.91780        1.21750        0.10580
C          2.98360       -1.17970        0.01710
N          4.38750       -1.16490        0.22730
N          2.38810       -2.31520       -0.11990
H          0.46570        1.14730       -0.27440
H          0.29890       -0.44080        0.55600
H          0.57960       -0.36730       -1.24000
H          2.88760        1.41130        1.07810
H          4.89630       -0.27690        0.34030
H          4.91490       -2.04940        0.26860
H          1.37480       -2.40180       -0.27460
