17
5418	1
C          0.95970       -0.04600        0.15620
C          2.44160       -0.04060       -0.06130
N          3.08430        1.08220       -0.07890
C          4.50210        1.14750       -0.37870
C          5.20830       -0.04690        0.24740
C          4.58530       -1.33580       -0.30470
N          3.13440       -1.27570       -0.25900
H          0.57330        0.98730        0.28930
H          0.72140       -0.63720        1.06480
H          0.45790       -0.50550       -0.72060
H          4.91880        2.10030        0.00990
H          4.64710        1.12440       -1.48110
H          5.04110       -0.00090        1.34660
H          6.30250       -0.03090        0.05600
H          4.95250       -2.17880        0.31890
H          4.89340       -1.51490       -1.35720
H          2.59340       -2.13730       -0.42500
