15
5052	1
O          1.08340       -0.02520        0.20890
C          2.47620       -0.00450        0.00110
C          2.98950       -1.37840       -0.44210
O          2.47010       -1.70140       -1.71730
C          2.88150       -0.71660       -2.65340
O          2.34160        0.55900       -2.34290
C          2.85540        0.99220       -1.09860
H          0.63870       -0.29340       -0.63680
H          2.95560        0.28780        0.95990
H          2.66960       -2.14680        0.29290
H          4.10350       -1.39920       -0.46740
H          2.48820       -1.01400       -3.64710
H          3.99010       -0.68680       -2.77330
H          2.43630        1.99080       -0.85280
H          3.96150        1.11320       -1.16370
