10
337	1
C         -1.17460        0.00560        0.00010
C         -0.36310        1.12190        0.00010
C          0.93810        0.66300        0.00030
N          0.94520       -0.68220        0.00040
H          1.78960       -1.29600        0.00050
C         -0.33650       -1.09050        0.00030
H         -2.25620       -0.00750        0.00000
H         -0.68450        2.15480        0.00010
H          1.82930        1.27670        0.00030
H         -0.64520       -2.12760        0.00030
