14
4283	2
N          1.26260       -0.15490        0.39930
C          2.46850       -0.03830       -0.02490
C          3.17470        1.27140       -0.24020
C          4.58620        0.83790       -0.75180
C          4.50350       -0.66310       -0.76240
N          5.45780       -1.44310       -1.12120
N          3.26580       -1.13520       -0.33650
H          0.69920        0.67890        0.62100
H          3.24820        1.82780        0.71860
H          2.63790        1.87360       -1.00410
H          5.38560        1.17150       -0.05610
H          4.77530        1.21720       -1.77880
H          6.36270       -1.06010       -1.43160
H          2.98800       -2.12520       -0.26430
