10
781	1
O          1.01410        0.12640        0.16260
C          2.35710       -0.14120       -0.12570
C          2.79860        0.73850       -1.26030
F          2.73320        2.08880       -1.11370
C          3.25430        0.22140       -2.40710
F          3.64740        1.04230       -3.41600
H          0.78580       -0.42940        0.95250
H          2.47430       -1.21800       -0.38410
H          2.98870        0.09610        0.75870
H          3.31630       -0.85350       -2.54750
