19
5681	1
C          1.02150        0.04180       -0.18800
C          2.56150        0.05520       -0.05740
C          3.13620       -1.16520       -0.81010
C          3.26520       -0.62670       -2.19070
C          3.26370        0.74540       -2.19230
C          3.12200        1.28820       -0.81110
C          4.49410        1.72940       -0.29270
H          0.60510       -0.86080        0.30830
H          0.69410        0.04210       -1.25030
H          0.58980        0.93440        0.31330
H          2.76670        0.05050        1.03570
H          2.47850       -2.05620       -0.71690
H          4.16250       -1.41920       -0.46840
H          3.46360       -1.22200       -3.07190
H          3.45620        1.33990       -3.07570
H          2.41900        2.14760       -0.74100
H          5.22920        0.89680       -0.33440
H          4.40460        2.06980        0.76060
H          4.87670        2.57490       -0.90350
