12
205	2
C          0.89960       -0.50940        0.40220
C          2.25520        0.10490        0.05140
N          2.12230        1.47650       -0.40870
C          1.70110        2.48900        0.39440
O          1.41710        2.28980        1.56570
H          1.04230       -1.56630        0.71130
H          0.23160       -0.48490       -0.48490
H          0.41060        0.03050        1.23770
H          2.69900       -0.50620       -0.76470
H          2.94000        0.06250        0.92600
H          2.38150        1.69710       -1.38190
H          1.62930        3.49540       -0.00530
