14
341	1
C          0.97730        0.07420        0.10040
C          2.49630        0.06420       -0.07040
F          2.86960        0.03240       -1.40530
C          3.24140        1.20610        0.68450
C          3.91300        0.09070        1.34470
O          4.77400        0.10690        2.20990
C          3.23240       -1.04810        0.73570
H          0.55030        0.96830       -0.40050
H          0.70250        0.09980        1.17670
H          0.54310       -0.83820       -0.35940
H          2.65440        1.76340        1.44610
H          3.96190        1.79410        0.07680
H          2.64100       -1.56550        1.52180
H          3.94800       -1.66880        0.15550
