14
10537	1
C         -1.28830        0.65510       -0.02330
C         -1.04170       -0.84050       -0.23220
N         -0.25650       -1.42470        0.87870
C          0.39930       -1.08040       -0.39210
C          1.07790        0.28970       -0.38970
O          0.93380        0.91340        0.86600
C          0.06390        1.33570       -0.15300
H         -1.77990        0.87180        0.94920
H         -1.93300        1.01580       -0.85170
H         -1.89580       -1.53420       -0.39760
H         -0.36290       -2.46590        0.86880
H          0.56930       -1.86750       -1.15800
H          2.10420        0.48380       -0.76310
H          0.20880        2.42910       -0.27370
