15
8728	2
N          1.11980        0.06320        0.30950
N          2.47570        0.05850        0.07020
C          3.03160        0.84600       -0.78840
C          2.36390        1.90690       -1.56640
C          3.55080        2.31630       -2.47010
N          4.81060        1.93630       -1.79750
N          4.41030        0.90270       -0.96540
H          0.72580       -0.58650        1.00420
H          0.48540        0.70580       -0.18680
H          2.08490        2.70860       -0.84980
H          1.49600        1.58870       -2.18300
H          3.51770        3.37270       -2.81280
H          3.49710        1.67250       -3.37720
H          5.13380        2.71530       -1.17790
H          5.07830        0.35930       -0.39890
