19
6736	1
C          3.23920       -0.90750        0.28780
N          2.35840        0.21110       -0.08160
C          1.66610        0.70000        1.12470
C          3.16110        1.22480       -0.81330
C          2.18050        2.02810       -1.68790
C          2.96570        2.73480       -0.60120
N          4.16130        3.47140       -1.02240
H          2.65650       -1.71730        0.77790
H          4.04410       -0.56980        0.97890
H          3.70490       -1.35030       -0.61930
H          1.10020       -0.12810        1.60390
H          0.91030        1.46800        0.85980
H          2.38750        1.11310        1.86390
H          3.85170        0.81580       -1.58520
H          1.11980        2.16190       -1.38760
H          2.52100        2.43950       -2.66220
H          2.57150        2.96460        0.40730
H          4.54040        3.14040       -1.93970
H          4.90340        3.33560       -0.29920
