12
186	3
C          0.73370        0.26100       -0.42860
C          2.14470        0.04160        0.06710
N          3.14160        0.35630       -0.68370
N          2.40240       -0.51140        1.35980
C          1.41520       -0.87270        2.21980
O          1.69870       -1.34000        3.31140
H          0.71980        0.69690       -1.45010
H          0.20260        0.96030        0.25050
H          0.19320       -0.70800       -0.46120
H          3.00900        0.75810       -1.62360
H          3.38410       -0.64120        1.65110
H          0.36980       -0.75490        1.95780
