13
8746	1
O          1.13320        0.09410        0.18310
N          2.44740        0.13270        0.12350
C          3.04960        0.92870       -0.68700
N          2.40510        1.79990       -1.55350
C          3.39340        2.52350       -2.29740
C          4.73630        1.94700       -1.73820
O          4.37450        1.00460       -0.78430
H          0.69460       -0.50950        0.79750
H          1.38560        1.91350       -1.65180
H          3.30010        3.61130       -2.09140
H          3.27980        2.31190       -3.38210
H          5.34120        2.74760       -1.26150
H          5.32130        1.45610       -2.54500
