16
10018	1
C         -1.66600        0.71550       -0.25270
C         -0.33750        1.19450        0.29670
C          0.49360        0.10060       -0.27860
C          1.82650        0.19040       -0.89790
N          1.73560       -0.09140        0.52890
C         -0.35420       -1.14730       -0.19390
O         -1.69880       -0.69800       -0.12730
H         -1.74770        0.96620       -1.33570
H         -2.50810        1.19600        0.28890
H         -0.36450        1.10020        1.40650
H         -0.06460        2.22740       -0.00780
H          2.20230        1.21600       -1.11210
H          2.15340       -0.70980       -1.45880
H          2.01250        0.79160        1.02090
H         -0.13510       -1.71770        0.73540
H         -0.19980       -1.78610       -1.08900
