14
1025	1
C          0.85750       -0.12780       -0.30350
C          2.35160       -0.05870       -0.00700
F          3.03210        0.21300       -1.18360
C          2.62440        0.98020        1.05470
C          3.42120        2.03970        0.84180
C          3.65950        3.02830        1.90740
O          4.38580        3.98620        1.69900
H          0.66310       -0.91070       -1.06670
H          0.49650        0.84830       -0.69290
H          0.29130       -0.38390        0.61770
H          2.69130       -1.04590        0.37210
H          2.15220        0.85320        2.02590
H          3.90290        2.18530       -0.12060
H          3.19320        2.91310        2.88130
