15
401	1
C          1.01600        0.03610        0.06490
C          2.54030        0.03110        0.13860
F          3.10960        0.00100       -1.12810
C          3.21690        1.11020        0.98570
C          4.25240        0.05060        1.37300
C          3.20770       -1.01580        1.03220
H          0.67230        0.92960       -0.49720
H          0.57330        0.06030        1.08330
H          0.66440       -0.87800       -0.45770
H          2.59060        1.32260        1.88460
H          3.56210        2.04450        0.49440
H          4.68550        0.07110        2.39550
H          5.04860        0.03010        0.59150
H          2.57970       -1.18330        1.93930
H          3.54460       -1.97370        0.58220
