19
9520	1
C          3.12300        0.35680       -2.20670
C          2.48830       -0.64190       -1.23820
C          3.36940       -0.92130       -0.00330
C          2.63190       -1.85630        0.96180
C          4.70410       -1.56930       -0.41290
C          5.88780       -0.68230       -0.52560
O          5.65760       -1.48970        0.61230
H          2.43040        0.54080       -3.05470
H          4.07460       -0.03910       -2.61810
H          3.31850        1.32120       -1.69150
H          2.27980       -1.59080       -1.77990
H          1.51900       -0.21380       -0.90010
H          3.54840        0.03990        0.53050
H          2.41560       -2.83240        0.47610
H          1.67290       -1.39750        1.28460
H          3.24860       -2.03750        1.86800
H          4.74190       -2.55830       -0.91690
H          5.80690        0.37930       -0.21100
H          6.78260       -1.07800       -1.04890
