17
10454	1
O          1.14010        0.00220        0.14450
C          2.54520       -0.03590        0.10500
C          3.08150       -1.02640       -0.93600
C          4.59100       -0.82310       -0.80360
C          4.61010        0.70770       -0.79430
C          3.10580        0.95030       -0.92250
C          2.72990       -0.02650       -2.03580
H          0.85250       -0.88690        0.47810
H          2.97050       -0.02820        1.13670
H          2.74820       -2.08530       -0.97270
H          5.13280       -1.24720       -1.67790
H          4.97260       -1.25670        0.14740
H          5.16070        1.12860       -1.66470
H          5.00490        1.12010        0.16070
H          2.79920        2.01760       -0.94550
H          3.32650       -0.02770       -2.97750
H          1.63760       -0.01220       -2.26010
