17
7591	1
C          1.16730       -0.16050        1.16010
C          2.04210       -0.17470        0.14980
C          2.87230       -1.39120       -0.16050
C          4.36330       -1.05870       -0.05510
N          5.17620       -2.21160       -0.36980
N          6.54780       -2.10730       -0.32800
C          7.30330       -3.11060       -0.60200
H          0.58320        0.73240        1.35740
H          1.02830       -1.03160        1.79300
H          2.15690        0.71350       -0.46490
H          2.63760       -1.72380       -1.19440
H          2.63570       -2.22450        0.53820
H          4.59470       -0.72440        0.97990
H          4.61230       -0.23770       -0.76260
H          4.72980       -3.10800       -0.62480
H          8.38110       -2.99910       -0.56090
H          6.87860       -4.07240       -0.87520
