17
10165	1
C         -1.56770        0.75110        0.02800
C         -1.44070       -0.78670        0.01960
O         -0.18420       -1.19420        0.54850
C          0.78380       -0.63980       -0.31250
C          2.09800       -0.13540        0.09740
C          0.92910        0.86520        0.10940
C         -0.32000        1.39810       -0.62170
H         -1.61220        1.08080        1.08980
H         -2.50310        1.07850       -0.47350
H         -1.57200       -1.18390       -1.01460
H         -2.25950       -1.22440        0.62840
H          0.74890       -0.89490       -1.39940
H          2.78560        0.06680       -0.75070
H          2.44700       -0.43110        1.11090
H          0.79910        1.06640        1.19780
H         -0.26830        1.21690       -1.71950
H         -0.39180        2.49610       -0.46940
