14
8114	1
F          3.55110       -0.64320        0.99610
C          2.43800       -0.24520        0.27400
C          2.77240        0.78020       -0.78140
C          4.02630        1.23160       -0.97380
C          4.35370        2.25750       -2.02120
C          4.95060        3.43610       -1.38180
C          5.44180        4.40710       -0.86030
H          1.69530        0.18590        0.97770
H          1.98980       -1.13890       -0.20890
H          1.95950        1.15560       -1.39700
H          4.84040        0.85630       -0.36160
H          3.45490        2.57250       -2.59750
H          5.09050        1.82480       -2.73370
H          5.87240        5.25680       -0.39720
