12
9260	1
N          1.10410       -0.19130        0.21130
C          2.49900        0.15080       -0.04350
C          2.84950        1.43750        0.63290
C          2.78290        1.72540        1.97490
N          3.19510        2.99690        2.12460
N          3.49660        3.44980        0.91510
O          3.28770        2.51530        0.03290
H          0.89210       -1.09510       -0.26960
H          0.48740        0.54430       -0.20340
H          2.67100        0.24490       -1.13870
H          3.15480       -0.65380        0.35260
H          2.46290        1.07450        2.77800
