15
9874	1
C          2.48380       -1.22210        0.91390
C          2.71870       -0.17750        0.11660
C          2.87470       -0.34910       -1.33790
N          3.09850        0.67540       -2.07880
N          3.24660        0.53720       -3.43860
C          4.22740        1.26980       -4.13360
C          2.64270        1.44970       -4.32430
H          2.37200       -1.07210        1.98290
H          2.40170       -2.22690        0.50990
H          2.79560        0.81600        0.54900
H          2.79990       -1.33980       -1.78210
H          4.79050        0.55190       -4.76450
H          4.76720        1.93300       -3.42300
H          2.09840        0.85710       -5.08790
H          2.11150        2.23400       -3.74220
