18
9598	1
N          2.33250        0.74440       -0.91270
C          1.91640       -0.19880        0.11930
C          2.56580       -1.54580       -0.11560
C          1.80700       -2.62590       -0.35690
C          4.07570       -1.67100       -0.11230
C          4.61500       -1.21550        1.24390
C          4.73660       -2.66820        0.83530
H          1.88420        1.66940       -0.71990
H          1.98010        0.41040       -1.83970
H          0.80620       -0.27470        0.11360
H          2.21780        0.18920        1.11470
H          0.72410       -2.55420       -0.37540
H          2.26290       -3.59280       -0.54330
H          4.65390       -1.07920       -0.85380
H          3.98860       -1.25820        2.16130
H          5.66740       -0.87030        1.32570
H          3.96140       -3.38940        1.17080
H          5.63810       -3.01780        0.28880
