15
8357	1
O          3.32340        0.17550       -1.11330
C          2.42200        0.05720       -0.04870
C          2.96410       -0.95720        0.96570
N          2.06120       -1.26580        2.08200
C          2.39270       -2.67940        1.86600
C          3.00340       -2.40300        0.50290
F          4.27140       -2.92470        0.31640
H          2.94970        0.87180       -1.71360
H          1.43130       -0.27750       -0.43060
H          2.31420        1.03890        0.46370
H          3.94770       -0.64460        1.39040
H          1.06950       -1.13950        1.76540
H          1.52080       -3.37120        1.86150
H          3.17300       -2.96900        2.60780
H          2.25750       -2.60710       -0.29690
