17
6461	1
C          1.51680        1.51230       -0.78300
C          2.42510        0.83390       -1.49060
C          3.17900       -0.32740       -0.90100
C          4.68820       -0.05720       -0.93310
C          5.16580        1.00670        0.03400
C          6.00310       -0.12830        0.57910
O          5.41690       -1.07120       -0.28730
H          0.98950        2.34530       -1.23640
H          1.29470        1.24470        0.24550
H          2.62490        1.12660       -2.51740
H          2.96240       -1.23150       -1.50830
H          2.85640       -0.53200        0.14450
H          5.09420        0.09510       -1.95970
H          4.38920        1.29750        0.77590
H          5.76310        1.81290       -0.44370
H          5.77920       -0.35830        1.64400
H          7.08310       -0.01670        0.33430
