14
7288	1
C          2.99190       -0.83170       -0.96100
O          2.41520       -0.11660        0.06940
C          3.11670        0.54910        1.02920
C          2.46640        1.22030        1.99720
C          0.96610        1.27930        2.08250
C          4.52270        0.54910        1.02920
N          5.67370        0.54910        1.02920
H          2.19120       -1.26900       -1.59180
H          3.61520       -1.65660       -0.55420
H          3.61570       -0.16210       -1.59110
H          3.03440        1.74910        2.75970
H          0.46290        0.71560        1.26970
H          0.64080        2.33880        2.02610
H          0.64100        0.85500        3.05500
