13
10492	1
O          1.09880        0.04870       -0.24730
C          2.31680        0.13800       -0.23640
C          3.27790       -0.58730        0.60320
C          3.48060        0.81740        1.25460
C          3.14230        1.35000       -0.17420
C          4.29750        0.75390       -0.89720
C          4.38690       -0.51980       -0.38570
H          3.09140       -1.49880        1.20950
H          4.47140        1.06680        1.70370
H          2.66760        1.05550        1.99080
H          2.81870        2.39700       -0.35360
H          4.92280        1.19250       -1.66260
H          5.09690       -1.28520       -0.66720
