15
10347	1
F          0.87060        0.10110        0.00600
C          2.25230        0.01080       -0.06640
C          2.65100       -1.41870       -0.32640
N          2.37650       -1.62020       -1.73790
C          2.86020       -0.37890       -2.35890
C          1.89270        0.74880       -2.55840
C          2.77050        0.75920       -1.29740
H          2.67160        0.39670        0.88670
H          2.12160       -2.14500        0.32760
H          3.74820       -1.53050       -0.16500
H          1.34270       -1.71110       -1.88270
H          3.83290       -0.38570       -2.89930
H          0.81950        0.57400       -2.33650
H          2.22150        1.56120       -3.23900
H          3.83970        1.06390       -1.26110
