16
7520	1
C          2.30600        0.15270        1.79820
C          3.39410        0.43780        0.77400
O          3.66990       -0.74620        0.05530
C          4.61120       -0.48460       -0.96410
O          3.99280        0.11860       -2.03550
N          4.67630        0.41820       -3.12060
C          4.09780        0.98310       -4.11610
H          2.08000        1.07500        2.37400
H          2.64340       -0.63750        2.50220
H          1.38100       -0.18770        1.28590
H          4.29900        0.78270        1.32370
H          3.01970        1.24030        0.09800
H          5.03940       -1.45570       -1.29190
H          5.46720        0.13180       -0.60130
H          4.66910        1.22590       -5.00520
H          3.03870        1.22160       -4.07790
