13
9231	2
C          2.02750       -0.76900        1.09030
N          2.60500        0.01020        0.02100
C          3.21210       -0.61400       -1.09650
N          3.76620        0.06330       -2.12220
C          4.20770       -0.91950       -2.93240
N          3.92960       -2.12850       -2.41350
H          4.15680       -3.05890       -2.82840
N          3.30630       -1.94630       -1.26410
H          1.60610       -0.09390        1.86490
H          2.80790       -1.40680        1.55690
H          1.21310       -1.41090        0.69270
H          2.57550        1.03940        0.07060
H          4.71700       -0.75650       -3.87290
