12
8247	1
O          1.08150        0.03030       -0.01670
C          2.50050        0.05700       -0.01610
C          2.98190       -0.15440        1.32880
C          3.37860       -0.32860        2.43730
C          3.85990       -0.54000        3.78220
C          3.26930        0.43890        4.66420
N          2.79850        1.21920        5.36730
H          0.79820        0.21480       -0.92630
H          2.83010        1.02560       -0.40430
H          2.85920       -0.72680       -0.69010
H          4.95220       -0.46200        3.80970
H          3.60860       -1.55160        4.11920
