12
9595	1
F          1.04010        0.16780       -0.13560
C          2.41750        0.06310        0.00150
C          2.89740        1.26410        0.70570
C          3.29640        2.24040        1.28310
C          2.71450       -1.24420        0.75730
C          4.01790       -1.90190        0.47060
O          3.83130       -1.11790        1.61370
H          2.85830        0.03170       -1.00810
H          3.64880        3.10080        1.79140
H          1.91500       -1.81320        1.26910
H          4.75870       -1.39360       -0.18220
H          4.08840       -2.96820        0.76610
