16
7730	1
C          3.10170       -0.53760       -1.16000
O          2.56310        0.00030        0.02730
C          2.89750       -0.82500        1.12290
O          4.20100       -0.60150        1.50370
N          4.71480       -1.23840        2.53560
C          5.93220       -1.03080        2.88650
C          6.51390       -1.75450        4.05800
H          2.87680        0.16040       -1.99230
H          2.62600       -1.51110       -1.41190
H          4.20950       -0.62690       -1.10400
H          2.72710       -1.90570        0.90530
H          2.22360       -0.56380        1.96640
H          6.54950       -0.32710        2.33420
H          5.76580       -2.43560        4.51790
H          6.84500       -1.01730        4.81840
H          7.38760       -2.35190        3.72450
