15
6783	1
C          1.02300        0.03240       -0.08560
C          2.54760        0.11590        0.03450
N          3.29010       -0.57020       -1.03050
C          3.23570        0.91780       -0.98280
C          4.60410        1.43000       -0.63610
F          5.65780        1.11160       -1.43370
C          4.79790        2.20690        0.43370
H          0.67950       -0.95340        0.29060
H          0.66930        0.16190       -1.13150
H          0.56880        0.83010        0.53800
H          3.03930       -0.01600        1.02210
H          2.62770       -0.90390       -1.76970
H          2.77520        1.26530       -1.93500
H          3.96860        2.48080        1.07930
H          5.79190        2.57430        0.66670
