13
6852	1
O          1.68360        0.02100        1.11380
C          2.53170       -0.01310        0.23590
N          3.01790       -1.13970       -0.27100
C          3.99900       -0.86120       -1.30010
C          5.23190       -0.09110       -0.85980
C          4.03290        0.71490       -1.32870
N          3.06550        1.07240       -0.31100
H          2.72580       -2.08450        0.01840
H          3.77750       -1.20130       -2.33520
H          6.05850       -0.12230       -1.59930
H          5.40530       -0.07500        0.23790
H          3.82550        1.02660       -2.37550
H          2.81460        2.03880       -0.05620
