17
9764	1
C          1.83680        1.01070        0.11720
C          2.24820       -0.25990        0.06040
C          3.02920       -0.89040        1.17720
O          4.27010       -1.31820        0.66810
C          4.97120       -1.94990        1.71110
C          6.44330       -1.96410        1.32930
C          5.97140       -1.08170        2.46640
H          1.27420        1.43450       -0.70820
H          2.05590        1.63320        0.97950
H          2.01220       -0.85510       -0.81690
H          2.43420       -1.75800        1.54390
H          3.17590       -0.15760        2.00510
H          4.75040       -3.02450        1.89090
H          6.83450       -1.25200        0.57110
H          7.12840       -2.69400        1.81100
H          5.67870       -0.02890        2.26350
H          5.94150       -1.48000        3.50260
