15
10522	1
C         -0.85460        0.00010       -1.30520
C         -0.63850        0.92630       -0.13540
O         -1.23890        0.00010        0.72360
C         -0.63870       -0.92620       -0.13540
C          0.83850       -0.78240        0.27750
C          1.88180       -0.00020       -0.49780
C          0.83870        0.78220        0.27760
H         -0.20460        0.00000       -2.20120
H         -1.92850        0.00020       -1.60150
H         -1.07420        1.94730       -0.17690
H         -1.07450       -1.94710       -0.17700
H          1.09900       -1.11800        1.30640
H          1.80500       -0.00020       -1.59990
H          2.88170       -0.00030       -0.01580
H          1.09920        1.11780        1.30640
