15
9027	1
C          1.36610       -0.36930        1.04280
C          2.00680        0.10880       -0.03320
C          2.95910       -0.70480       -0.88500
C          2.42730       -0.85220       -2.27940
C          2.26740       -2.17870       -2.61180
C          2.65710       -2.96270       -1.55990
C          3.07660       -2.16130       -0.52290
H          0.69970        0.27910        1.60220
H          1.49080       -1.39260        1.37790
H          1.83740        1.14440       -0.31390
H          3.95860       -0.22130       -0.88860
H          2.19930       -0.03150       -2.94720
H          1.89870       -2.53570       -3.56410
H          2.64760       -4.04430       -1.53920
H          3.44230       -2.54120        0.42230
