17
8211	1
C          1.07590        0.14360        0.05760
N          2.53890        0.13920        0.03850
C          3.03770        0.20490       -1.33840
C          4.48170        0.20490       -1.33840
C          5.67180        0.20490       -1.33840
C          7.11580        0.20490       -1.33840
N          7.61610       -0.72960       -0.33700
H          0.72170        0.10530        1.10930
H          0.67170       -0.74090       -0.48260
H          0.68420        1.07520       -0.40470
H          2.86560       -0.75180        0.48270
H          2.68960        1.13980       -1.82850
H          2.68320       -0.67090       -1.92560
H          7.48430        1.23140       -1.12320
H          7.47120       -0.10410       -2.34420
H          7.33470       -0.39910        0.61540
H          8.66110       -0.72790       -0.37620
