15
8299	1
C          0.98540       -0.13360        0.16410
C          2.50440       -0.15750        0.19700
C          3.04620        0.64450       -0.90410
C          3.44080        1.31070       -1.81870
C          3.91380        2.16560       -2.99250
C          4.31050        2.82630       -3.89950
C          4.79180        3.62780       -4.99990
H          0.57370       -0.73010        0.98310
H          0.60680       -0.53960       -0.78070
H          0.60680        0.89030        0.26080
H          2.85800       -1.19110        0.11760
H          2.85800        0.23510        1.15640
H          4.12410        3.55280       -5.86370
H          5.78750        3.30350       -5.31780
H          4.85790        4.68350       -4.71920
