17
6644	1
C          1.48160       -0.44020        1.22650
C          2.73970        0.04860        0.58440
N          3.88360       -0.30310        1.05060
N          5.04540        0.14040        0.46020
C          6.15540       -0.72580        0.30650
C          6.14610        0.59610        1.21650
C          5.98340        0.41550        2.72880
H          0.88860       -1.01310        0.48380
H          0.88590        0.42760        1.57770
H          1.70580       -1.09840        2.09330
H          2.67640        0.70300       -0.28130
H          6.45240       -0.67090       -0.76090
H          5.90190       -1.71250        0.75220
H          6.47490        1.57840        0.81830
H          5.64210       -0.60840        2.99310
H          5.25470        1.15790        3.11680
H          6.96370        0.59090        3.21800
