16
8755	1
F          2.85320        1.26280       -0.15290
C          2.45330       -0.06140       -0.10930
C          2.94830       -0.72730        1.19630
C          2.51780       -2.20970        1.20340
C          3.64130       -2.84430        0.46540
C          4.74950       -2.03770        0.46440
C          4.49190       -0.77300        1.20170
H          2.84040       -0.58250       -1.01150
H          1.34310       -0.08540       -0.14450
H          2.51270       -0.13330        2.02890
H          1.51650       -2.35210        0.74260
H          2.52700       -2.63810        2.22880
H          3.64100       -3.85690        0.08450
H          5.71260       -2.34900        0.08250
H          4.93850        0.13380        0.74090
H          4.89700       -0.91350        2.22700
