12
8911	1
O          1.80800        0.22400       -0.95820
C          2.25270       -0.15390        0.11510
C          3.01560        0.78140        1.01660
C          2.28550        1.02730        2.36550
O          2.15320        2.40110        2.41620
N          2.61100        3.00000        1.34710
C          3.09720        2.18050        0.51540
H          2.09830       -1.18240        0.42410
H          4.04880        0.40460        1.17520
H          2.89050        0.66090        3.22190
H          1.26910        0.57690        2.38910
H          3.54170        2.48920       -0.42150
