15
10380	1
C          1.23840        0.16050        0.28640
C          2.52070       -0.00250       -0.05190
C          3.16980       -1.32490       -0.18930
O          4.47780       -1.06990       -0.64660
C          4.70540        0.31680       -0.47190
C          4.18420        1.10880       -1.65480
C          3.43190        1.12030       -0.31980
H          0.60620       -0.70140        0.47660
H          0.81520        1.15640        0.37460
H          2.62970       -1.92300       -0.95380
H          3.18850       -1.85790        0.78540
H          5.73430        0.67480       -0.25610
H          3.49710        0.64060       -2.39330
H          4.51390        2.15950       -1.79580
H          3.66620        1.81240        0.51700
