12
8832	1
F          1.10630       -0.18810        0.36370
C          2.43690       -0.06910        0.11330
C          3.03390       -0.86870       -0.77420
C          2.33690       -1.94460       -1.56420
C          3.52390       -2.43390       -2.32870
C          4.63850       -1.71330       -1.97410
O          4.34810       -0.78870       -1.05560
H          3.01370        0.68320        0.64160
H          1.55930       -1.52800       -2.23870
H          1.91770       -2.73680       -0.90860
H          3.51840       -3.23520       -3.05540
H          5.62830       -1.86850       -2.38190
