13
10060	1
C         -1.20450       -0.71130       -0.49690
O         -1.15340        0.69020       -0.58490
C         -0.06080        0.99710        0.27120
C          1.21910        0.71350       -0.47140
O          1.16950       -0.68740       -0.56890
C          0.06220       -0.99950        0.26620
O         -0.00770       -0.00420        1.23020
H         -1.20830       -1.20450       -1.49240
H         -2.09550       -1.00480        0.10120
H         -0.14370        2.02090        0.69340
H          2.09950        1.00330        0.14390
H          1.24020        1.21280       -1.46370
H          0.13780       -2.02590        0.68340
