13
9387	1
N          3.55100        0.03110       -0.95280
C          2.57860       -0.12370        0.12350
C          2.92680        0.77420        1.26870
C          3.02160        2.14670        1.23430
C          3.36120        2.49830        2.52150
O          3.45210        1.39920        3.23790
N          3.19680        0.34590        2.51520
H          3.27230       -0.59390       -1.74350
H          4.48960       -0.28350       -0.61390
H          2.56080       -1.18290        0.46370
H          1.56740        0.14600       -0.24980
H          2.86520        2.80290        0.38850
H          3.52790        3.49870        2.89750
