16
8428	1
C          0.97890       -0.05610        0.05590
C          2.49360       -0.06930        0.06480
C          3.24420        0.94010        0.92780
N          4.23650       -0.09150        1.26710
C          3.21660       -1.09220        0.92830
C          3.78020       -2.25570        0.24400
C          4.24040       -3.21400       -0.31960
H          0.62100        0.79490       -0.55740
H          0.58800        0.03960        1.08440
H          0.61030       -0.99960       -0.39310
H          2.92910       -0.05540       -0.96430
H          2.66760        1.22470        1.84930
H          3.64250        1.84680        0.43530
H          4.55340       -0.11440        2.26060
H          2.62720       -1.37970        1.83920
H          4.64040       -4.06000       -0.80850
