12
8237	1
F          0.95470       -0.01110        0.11940
C          2.33720       -0.02640        0.09950
C          2.87440        0.84130        1.23220
C          4.31840        0.84130        1.23220
C          5.50860        0.84130        1.23220
C          6.91990        0.85060        1.20990
C          8.12480        0.83830        1.23720
H          2.68550        0.36170       -0.88210
H          2.68550       -1.07520        0.21860
H          2.51330        0.44970        2.20670
H          2.51330        1.88410        1.10780
H          9.18290        0.84370        1.21720
