17
8023	1
C          2.46870       -1.46570        0.96280
C          3.22840       -0.16070        0.75560
C          2.98320        0.37480       -0.62940
C          3.98430        0.56560       -1.49610
O          3.71890        1.04980       -2.73130
C          4.69420        1.26020       -3.64500
C          4.38490        1.73880       -4.84920
H          2.64680       -1.84090        1.99270
H          2.81760       -2.23270        0.23850
H          1.37770       -1.30460        0.82720
H          4.31100       -0.34540        0.93190
H          2.87800        0.58950        1.49590
H          1.96550        0.61220       -0.92790
H          5.00730        0.33160       -1.20770
H          5.73310        1.04240       -3.40790
H          3.35350        1.96210       -5.10430
H          5.16480        1.90870       -5.58440
