20
9728	1
C          0.87040       -0.56680        0.63990
C          2.39090       -0.57250        0.51000
C          2.84240        0.22550       -0.72130
C          4.36920        0.28510       -0.86810
C          4.98480       -1.10270       -1.12880
C          6.40510       -1.23880       -0.82240
N          5.38860       -1.86140        0.06590
H          0.57100       -1.14820        1.53730
H          0.40490       -1.03040       -0.25600
H          0.49550        0.47320        0.74910
H          2.73000       -1.62660        0.42750
H          2.83090       -0.12320        1.42680
H          2.46770        1.26840       -0.62660
H          2.40210       -0.21980       -1.64070
H          4.81270        0.78030        0.02430
H          4.60170        0.92060       -1.74930
H          4.62740       -1.74660       -1.96030
H          6.94550       -0.44970       -0.25170
H          6.95710       -2.05990       -1.32590
H          5.29390       -1.26510        0.92100
