15
7537	2
F          0.04390        0.57790       -2.64800
C          0.47550        1.75580       -2.06700
C          1.24990        1.49290       -0.77310
N          2.48790        0.74280       -1.02510
N          2.22020       -0.60860       -1.26370
C          3.26500       -1.52390       -1.57970
N          4.49080       -1.14490       -1.67690
H         -0.41450        2.37980       -1.83960
H          1.11740        2.30470       -2.78820
H          0.61100        0.97020       -0.02630
H          1.52120        2.48420       -0.34770
H          3.07690        0.79170       -0.16090
H          1.25750       -0.97650       -1.21000
H          3.02110       -2.56770       -1.74810
H          4.77660       -0.16660       -1.53140
