12
7614	1
N          1.03390       -0.04320        0.09950
C          2.19030       -0.03500        0.05510
C          3.65570       -0.02910       -0.00010
N          4.17760        1.15950        0.68510
C          5.64310        1.24460        0.61350
C          6.29210        0.19310        1.41440
N          6.80450       -0.63240        2.04320
H          3.96160       -0.01850       -1.06840
H          4.02970       -0.95920        0.47910
H          3.87470        1.16500        1.68860
H          5.96520        2.22890        1.01330
H          5.98760        1.17920       -0.44110
