15
10470	1
O          1.15670        0.00850       -0.01180
C          2.55890       -0.03240       -0.01500
C          3.08320       -0.96600       -1.08440
C          4.59380       -0.82030       -0.94190
C          4.61360        0.71040       -0.93360
C          3.10670        0.89650       -1.07220
O          2.80460       -0.02480       -2.08710
H          0.85800       -0.87810        0.31880
H          2.98210       -0.02060        1.01710
H          2.64910       -1.98600       -1.16350
H          5.11390       -1.24340       -1.82910
H          4.96140       -1.26900        0.00760
H          5.14180        1.12950       -1.81790
H          4.99600        1.13920        0.01920
H          2.69900        1.92840       -1.13810
