14
7313	2
C          0.99810       -0.13050        0.22490
N          2.42940        0.03060        0.13160
C          3.02630        1.14370       -0.14110
N          2.29630        2.35620       -0.37210
N          2.92920        3.49690       -0.85560
C          4.46600        1.13530       -0.21970
C          5.66870        1.09810       -0.27870
H          0.77400       -1.19890        0.42200
H          0.51610        0.15630       -0.73460
H          0.59620        0.47890        1.06100
H          1.27960        2.39430       -0.21490
H          3.32040        3.27380       -1.79920
H          3.70670        3.75770       -0.20700
H          6.72390        1.05970       -0.33690
