17
7549	1
C          1.87210       -0.17920       -3.90480
O          2.57960        1.00200       -3.60100
C          3.22810        0.86540       -2.35150
O          4.36320        0.02670       -2.45210
C          5.42360        0.71810       -3.07620
C          6.59210       -0.21670       -3.20100
C          7.12180       -0.52960       -4.38780
H          1.41470       -0.06260       -4.90870
H          1.04090       -0.34730       -3.18490
H          2.55010       -1.05960       -3.95970
H          2.54190        0.46390       -1.57130
H          3.49220        1.87500       -1.96200
H          5.75500        1.57530       -2.44870
H          5.11780        1.08380       -4.08400
H          7.01700       -0.64940       -2.29990
H          6.72120       -0.11500       -5.30770
H          7.96640       -1.20890       -4.44090
