19
10501	1
C          0.18980        1.05890       -0.09950
C          1.00770       -0.21030        0.14110
C         -0.25610       -1.02770       -0.16150
C         -1.05720        0.23350        0.21170
C         -0.26000       -1.43080       -1.66350
C         -1.59850       -2.11570       -1.93740
C         -1.22010       -0.87480       -2.71690
H          0.20700        1.29350       -1.18830
H          0.40410        1.95850        0.51550
H          1.21610       -0.27880        1.23540
H          1.93360       -0.37740       -0.45050
H         -0.41210       -1.92480        0.47820
H         -1.19060        0.23390        1.32000
H         -2.02830        0.47490       -0.26610
H          0.49610       -2.18970       -1.96000
H         -2.52270       -1.81560       -1.39790
H         -1.65470       -2.91530       -2.70670
H         -1.53680        0.13210       -2.39030
H         -0.67520       -0.98520       -3.67880
