17
8144	1
C          1.18330       -0.26050        0.35560
N          2.59380       -0.18940        0.07470
N          3.25430        1.01250        0.18840
C          4.51360        1.10960       -0.05510
C          5.18570        2.41380        0.07760
C          6.49720        2.53920       -0.17070
C          7.19730        3.85960       -0.04050
H          0.81980       -1.30020        0.21370
H          0.63050        0.41320       -0.33210
H          0.99480        0.04870        1.40510
H          3.09890       -1.04360       -0.21040
H          5.08420        0.23420       -0.35820
H          4.60230        3.27930        0.38120
H          7.07900        1.67290       -0.47410
H          6.50520        4.67000        0.27430
H          7.64350        4.13450       -1.01860
H          8.00620        3.77130        0.71410
