17
10238	1
C          1.78000       -0.23360        0.18730
C          0.77580       -1.29180        0.62460
C         -0.14690       -0.82640       -0.51620
C         -1.50700       -0.41020       -0.10070
C         -1.51950        0.87320        0.36340
C         -0.17570        1.50130        0.30110
C          0.65170        0.49350       -0.54430
H          2.43910       -0.69150       -0.58650
H          2.37000        0.30510        0.95900
H          0.35890       -0.98240        1.61190
H          1.11920       -2.34780        0.62620
H         -0.00040       -1.34790       -1.48890
H         -2.37330       -1.05780       -0.09590
H         -2.39890        1.34870        0.77690
H          0.20730        1.63750        1.33530
H         -0.21940        2.47850       -0.22470
H          0.84550        0.88990       -1.56610
