10
7336	1
F          0.97580        0.23260       -0.18430
C          2.31470        0.04770       -0.02910
C          2.79970       -1.07170        0.54010
C          1.86760       -2.12690        1.00910
O          2.29210       -3.14780        1.52710
C          4.26540       -1.26170        0.70400
O          5.05780       -0.41110        0.32810
H          2.98470        0.82810       -0.37680
H          0.79510       -2.00220        0.89630
H          4.64620       -2.16760        1.16410
