17
7369	1
O          2.58460       -0.91000        0.89680
C          1.89920       -0.00530        0.07750
C          2.88590        1.03620       -0.47680
C          3.98930        0.55950       -1.43820
O          4.87930       -0.29630       -0.77380
C          2.21810        2.32000       -0.92210
C          3.13170        2.29400        0.32970
H          1.92010       -1.59580        1.16710
H          1.09400        0.48470        0.67100
H          1.43970       -0.54330       -0.78150
H          4.57460        1.41240       -1.84540
H          3.53020        0.05400       -2.31930
H          4.55730       -1.22340       -0.92310
H          1.21910        2.60200       -0.52640
H          2.73470        3.00890       -1.62410
H          2.66620        2.16270        1.33030
H          4.20120        2.57480        0.21890
