14
9155	1
O          2.23200        1.05540        0.45690
C          2.30470       -0.09060        0.04340
C          2.98430       -0.38010       -1.23250
C          3.10470       -1.57850       -1.73700
C          3.83980       -1.54050       -3.01650
N          4.15980       -0.11870       -3.24890
C          3.62140        0.63590       -2.10160
H          1.86470       -0.89700        0.62190
H          2.72150       -2.47930       -1.27400
H          3.20490       -1.94990       -3.83330
H          4.77550       -2.13210       -2.93250
H          3.67560        0.20000       -4.12140
H          2.86960        1.38760       -2.43110
H          4.44770        1.14030       -1.55760
