13
9228	3
N          3.41200       -0.02040       -1.02800
C          2.45920       -0.05530        0.07620
C          2.84850       -1.10870        1.06430
N          3.14960       -0.86240        2.35680
C          3.42810       -2.08580        2.84790
N          3.29900       -3.02320        1.89440
H          3.45240       -4.05050        1.99630
N          2.93650       -2.42120        0.77700
H          3.12540        0.73850       -1.68780
H          3.36810       -0.92550       -1.55090
H          1.43800       -0.26900       -0.30870
H          2.44880        0.93570        0.57960
H          3.71590       -2.28520        3.87150
