16
9128	1
N          1.56490       -0.33160        1.01090
C          2.60980       -0.03270        0.03780
C          3.09960        1.37510        0.22170
C          4.33250        1.70540        0.52170
C          4.44680        3.18110        0.63100
C          3.00090        3.62200        0.29650
O          2.30820        2.44510        0.09250
H          1.25330       -1.31960        0.86910
H          0.74080        0.28820        0.83460
H          2.21130       -0.14890       -0.99400
H          3.44670       -0.75270        0.17320
H          5.14200        1.00330        0.67620
H          5.17900        3.57500       -0.10550
H          4.73180        3.45290        1.66980
H          2.97580        4.22730       -0.63490
H          2.55120        4.19030        1.13840
