16
9819	1
N          1.37480        1.43230       -1.81120
N          2.64990        1.19490       -1.35440
C          3.10720        1.79090       -0.30960
C          4.49830        1.51360        0.17050
N          5.25670        2.77860        0.21000
C          6.71520        2.53430        0.28420
C          6.11690        2.97030       -0.98130
H          1.03460        0.94180       -2.64990
H          0.74930        2.09330       -1.32550
H          2.48990        2.49980        0.23680
H          4.96970        0.72660       -0.46570
H          4.42960        1.10760        1.20200
H          6.97990        1.45850        0.39120
H          7.19130        3.32850        0.89630
H          5.94680        2.21150       -1.77630
H          6.19680        4.05410       -1.20710
