15
9634	2
C          0.91650        0.31890        0.33310
N          2.33270        0.07360        0.17370
C          3.12470        0.71900       -0.82710
N          2.61080        1.55810       -1.65970
C          4.58720        0.40180       -0.92380
C          5.54220        1.53760       -0.81790
O          5.20710        0.74990        0.29280
H          0.52020       -0.29270        1.17120
H          0.37500        0.03760       -0.59470
H          0.74020        1.39060        0.56470
H          2.78890       -0.59650        0.81110
H          1.61410        1.81330       -1.64860
H          4.92100       -0.62510       -1.18040
H          5.13370        2.56070       -0.67710
H          6.59440        1.33710       -1.10730
