18
6940	1
C          3.17310       -0.38470       -0.36560
N          3.07570        0.04030        1.03270
C          3.61750        1.39150        1.27360
C          3.16740        1.88850        2.66020
O          3.66220        1.07780        3.69370
C          5.15480        1.45570        1.11500
O          5.80200        0.55690        1.97820
H          2.63790       -1.34950       -0.48930
H          4.22980       -0.54330       -0.66530
H          2.69440        0.36080       -1.03590
H          3.54310       -0.66810        1.64530
H          3.17360        2.09840        0.53650
H          2.05420        1.93470        2.70400
H          3.52710        2.92690        2.82370
H          3.00020        0.35200        3.83620
H          5.50790        2.50030        1.28440
H          5.45120        1.21300        0.07470
H          6.14640        1.08220        2.74670
