17
8421	1
C          0.96860        0.06930        0.15290
C          2.47890        0.03940       -0.12450
C          3.24600        1.24960        0.47430
C          4.07640        0.20930        1.27400
N          3.26050       -0.81610        0.71840
N          2.69300       -1.76890        1.53930
C          2.01450       -2.74970        1.05920
H          0.50880        0.90010       -0.42190
H          0.76350        0.22690        1.23360
H          0.49160       -0.87610       -0.17490
H          2.73020       -0.15360       -1.19020
H          2.62410        1.85100        1.17370
H          3.84370        1.80570       -0.27950
H          3.97140        0.27700        2.37970
H          5.11710        0.09310        0.90180
H          1.57930       -3.48190        1.72950
H          1.88170       -2.86290       -0.01320
