16
6820	1
C          0.86010        1.28870       -0.00260
C          1.61660       -0.03870       -0.02620
C          0.88960       -1.17530       -0.02700
C         -0.62520       -1.00600       -0.00040
C         -1.01260       -0.00500       -1.08910
C         -0.67850        0.99660        0.01820
N         -0.91570       -0.02260        1.06010
H          1.12090        1.88540       -0.90230
H          1.14510        1.85860        0.90680
H          2.70120       -0.06710       -0.03980
H          1.35960       -2.15320       -0.03870
H         -1.18340       -1.96720        0.02720
H         -2.11810       -0.03450       -1.21680
H         -0.46900        0.02120       -2.05920
H         -1.30240        1.91600        0.06350
H         -1.94570       -0.05260        1.25680
