14
9776	1
O          2.90330        2.50010       -1.50310
C          3.17650        3.53730       -0.91760
O          3.95260        3.53660        0.19780
C          4.49760        2.40510        0.78730
C          6.03890        2.44540        0.84660
C          6.76550        3.21360       -0.16060
N          6.63140        3.73950        1.22440
H          2.79510        4.47870       -1.29680
H          4.20640        1.47680        0.25030
H          4.10980        2.32390        1.82400
H          6.59010        1.60490        1.31840
H          6.23650        3.89600       -0.86230
H          7.82950        2.94260       -0.32270
H          5.90860        4.49500        1.22000
