16
10358	1
C          0.98960        0.29930        0.27740
C          2.23470       -0.37530       -0.29420
O          1.91510       -1.64070       -0.83230
C          2.79950       -1.83530       -1.91530
C          3.26280       -0.47220       -2.40520
N          2.14410        0.45840       -2.68290
C          2.87310        0.46430       -1.39550
H          0.56060       -0.33170        1.08420
H          0.21710        0.44110       -0.50720
H          1.25520        1.28950        0.70520
H          2.97850       -0.51390        0.52170
H          2.28770       -2.37500       -2.73970
H          3.67680       -2.42340       -1.56960
H          4.07130       -0.29780       -3.14490
H          1.22350       -0.03240       -2.60140
H          3.39770        1.43090       -1.24690
