15
9115	1
N          4.31310        0.49940        1.09170
C          2.90270        0.74010        0.79910
C          2.28200       -0.44150        0.10700
N          2.21670       -1.59380        0.63100
O          1.63160       -2.45390       -0.16060
C          1.22980       -1.89640       -1.35920
C          1.67310       -0.41550       -1.24960
H          4.40770       -0.32880        1.72380
H          4.82700        0.30690        0.20090
H          2.81690        1.63920        0.15190
H          2.35720        0.94090        1.74590
H          0.12610       -1.97890       -1.45830
H          1.74030       -2.40760       -2.20340
H          0.80880        0.28210       -1.27340
H          2.44090       -0.15140       -2.00800
