20
8488	1
C          1.98240        1.09470       -0.57740
C          2.78160       -0.14280       -0.18930
C          2.91050       -0.23240        1.33670
C          3.88810       -1.34340        1.74370
C          4.24340        0.12750        1.96080
C          4.11150        0.68870        3.38190
N          5.38820        0.57290        4.07640
H          1.87940        1.13990       -1.68230
H          2.50120        2.01310       -0.22780
H          0.96710        1.05400       -0.12710
H          3.77730       -0.09700       -0.68440
H          2.24970       -1.04560       -0.55970
H          1.99500       -0.34970        1.95660
H          4.64930       -1.72140        1.02760
H          3.76570       -1.81690        2.74100
H          4.93880        0.60440        1.23580
H          3.32090        0.16480        3.96730
H          3.83240        1.76140        3.30930
H          5.62050       -0.44030        4.19610
H          5.28670        0.98980        5.02970
