13
7019	1
F          2.76490        0.73510       -1.17520
C          2.35500        0.06130       -0.03650
C          2.88110       -1.38040       -0.03150
C          2.35850       -2.17730       -1.23330
F          0.97580       -2.22800       -1.21140
C          4.32510       -1.38040       -0.03150
C          5.51530       -1.38040       -0.03150
H          1.24510        0.06390        0.00250
H          2.72820        0.60650        0.85740
H          2.53580       -1.87900        0.90000
H          2.74520       -3.21880       -1.19580
H          2.68760       -1.71430       -2.18900
H          6.57350       -1.38030       -0.03170
