18
10079	1
C          0.40600       -2.04920       -1.26640
C          1.77390       -1.44970       -1.61880
C          0.90250       -0.79970       -0.56380
C          1.48200       -0.93670        0.84970
N          2.54880        0.06600        1.03800
C          3.30320       -0.17980        2.28870
C          3.90920       -0.52150        0.99980
H          0.34540       -2.86170       -0.51070
H         -0.49790       -1.72530       -1.82520
H          1.67260       -1.12660       -2.67650
H          2.49730       -2.24950       -1.35260
H          0.56180        0.19340       -0.92930
H          1.80520       -1.98400        1.06020
H          0.66000       -0.71050        1.56180
H          2.88490       -1.00960        2.90170
H          3.61130        0.79110        2.72960
H          3.92850       -1.59140        0.69860
H          4.62230        0.22220        0.58760
