13
8239	1
C          1.12710        0.02380       -0.01630
O          2.53640        0.02790       -0.00470
C          2.98840        0.47890        1.25200
C          4.43240        0.47890        1.25200
C          5.62260        0.47890        1.25200
C          7.03390        0.48450        1.23160
C          8.23780        0.51100        1.17470
H          0.78770       -0.33290       -1.01040
H          0.71760        1.04970        0.11840
H          0.71760       -0.68240        0.73990
H          2.65310       -0.20230        2.06590
H          2.65310        1.52220        1.44710
H          9.29220        0.55400        1.09480
