19
6823	1
C          0.90200        0.02740        0.17750
C          2.43330       -0.01930        0.00870
C          2.91180       -1.36200       -0.50560
C          2.54770       -1.36990       -1.99850
C          3.54140       -0.81720       -2.99270
C          2.54960        0.15810       -2.40400
C          2.91460        0.89060       -1.10340
H          0.59090       -0.69490        0.96180
H          0.35780       -0.21990       -0.75700
H          0.59300        1.04420        0.50030
H          2.87940        0.24150        0.99340
H          2.49050       -2.22340        0.05500
H          4.02070       -1.41090       -0.41090
H          1.52790       -1.71680       -2.28100
H          3.31470       -1.09550       -4.04270
H          4.58350       -0.71970       -2.62070
H          1.53040        0.32160       -2.82200
H          2.49560        1.91760       -1.04390
H          4.02360        0.97750       -1.04470
