16
7694	2
C          0.61650       -0.27580        1.72340
N          2.04470       -0.36070        1.90890
C          2.86370       -0.19320        0.92900
N          4.27170       -0.28060        1.12490
C          4.87680       -0.55180        2.41660
C          5.69890       -1.83500        2.35600
F          6.70570       -1.71780        1.41430
H          0.11150       -0.45230        2.69520
H          0.27860       -1.04670        0.99790
H          0.33840        0.73400        1.35230
H          2.48430        0.01750       -0.06840
H          4.88720       -0.13830        0.31010
H          4.11150       -0.66330        3.21360
H          5.53740        0.29740        2.69340
H          5.04510       -2.69280        2.09020
H          6.15760       -2.02960        3.34840
