14
6634	1
C          0.97660       -0.05430       -0.02890
C          2.44560        0.31950        0.12840
O          3.24250       -0.28020       -0.85210
C          3.04780        1.12050       -0.96680
C          4.33660        1.81930       -0.65260
C          5.43060        1.61480       -1.39130
F          6.58540        2.26320       -1.08960
H          0.81210       -1.07200        0.38220
H          0.65480       -0.04430       -1.09300
H          0.35440        0.66690        0.54030
H          2.94270        0.30490        1.12190
H          2.53980        1.29960       -1.93820
H          4.37490        2.50820        0.18570
H          5.40800        0.93260       -2.23610
