15
7855	2
C          1.17710        1.22250       -1.15690
C          2.66650        1.22170       -1.02560
N          3.38850        0.53190       -1.83300
N          4.75540        0.52770       -1.71130
C          5.48560       -0.10210       -2.56110
N          6.90170       -0.10850       -2.43230
N          7.53680        0.54260       -1.38040
H          0.82600        2.25760       -1.34810
H          0.72510        0.85260       -0.21330
H          0.84990        0.56940       -1.99410
H          3.13100        1.81460       -0.24200
H          5.02410       -0.63280       -3.39030
H          7.46820       -0.60940       -3.13110
H          7.19410        0.13140       -0.48210
H          7.28510        1.55670       -1.41720
