13
10498	1
C          0.59590        1.24880        0.67580
C          1.12430        0.00300       -0.01220
O          0.52650       -1.05570        0.67910
C         -0.80200       -0.63910        0.53150
C         -0.83450        0.86240        0.47660
C         -0.81400        0.10190       -0.81950
O          0.50920        0.01240       -1.26820
H          0.86720        2.18250        0.13640
H          0.88160        1.29800        1.74920
H          2.23050       -0.07600       -0.06540
H         -1.61860       -1.39290        0.48950
H         -1.76100        1.39400        0.77640
H         -1.63580       -0.34440       -1.42140
