18
9099	1
C          1.09670       -0.47750        0.39660
C          2.52100       -0.03730        0.07330
C          2.93510        1.14610        0.91020
C          3.94790        1.14130        1.73750
C          4.09610        2.45140        2.40060
N          3.01320        3.29490        1.85960
C          2.25970        2.46580        0.90070
H          0.82870       -1.35540       -0.22820
H          0.37580        0.33860        0.17880
H          1.01580       -0.76280        1.46720
H          2.58580        0.23820       -1.00080
H          3.20540       -0.89520        0.25470
H          4.59150        0.28860        1.91300
H          5.09590        2.88240        2.17100
H          3.97680        2.33560        3.49830
H          3.43320        4.10890        1.35150
H          2.28930        2.90380       -0.12170
H          1.20710        2.36620        1.23850
