15
7989	1
C          1.12760        0.28660       -0.26400
C          2.53350        0.14490        0.30910
N          3.00010       -1.21900        0.21660
N          4.28970       -1.51720        0.58980
C          4.78660       -2.68880        0.41240
C          6.13650       -2.95220        0.82870
C          7.27030       -3.15010        1.18550
H          0.79010        1.33970       -0.16570
H          0.41710       -0.37470        0.27450
H          1.13500        0.01600       -1.34210
H          2.54630        0.46490        1.37340
H          3.21370        0.80430       -0.27190
H          2.37600       -1.96070       -0.14120
H          4.20210       -3.48020       -0.04990
H          8.26670       -3.30840        1.50390
