10
8856	1
N          1.01330       -0.05750        0.08530
N          2.38870       -0.06490        0.05110
C          3.04250        0.44050       -0.93290
N          4.37710        0.46510       -1.02650
H          5.08540        0.09790       -0.35290
N          4.64330        1.06440       -2.17570
N          3.49710        1.39330       -2.76120
O          2.51970        1.00640       -1.99100
H          0.52250       -0.47140        0.89000
H          0.46080        0.35560       -0.68130
