20
6505	1
C          0.70480        0.25170       -0.58900
C          2.15110        0.03830       -0.13850
C          2.97080       -1.02750       -0.86610
C          3.16550        0.46120       -1.18130
C          4.53110        0.96120       -0.69360
C          4.60630        2.48380       -0.81240
N          5.91660        2.96170       -0.38460
H          0.03720       -0.38250        0.03000
H          0.54830       -0.00730       -1.65790
H          0.42810        1.31510       -0.43670
H          2.45910        0.31100        0.89380
H          2.27710       -1.61810       -1.50270
H          3.57320       -1.52300       -0.07500
H          2.87010        0.62240       -2.24110
H          5.32390        0.50730       -1.32680
H          4.71840        0.66600        0.36310
H          3.81410        2.95340       -0.18750
H          4.44340        2.77720       -1.87290
H          6.04160        2.75720        0.63280
H          5.94770        3.99910       -0.50600
