17
6568	2
C          0.85390        0.02320       -0.32400
C          2.36290       -0.18680       -0.19620
C          3.10320       -0.77920       -1.37610
C          3.14670        0.74020       -1.10980
N          4.45240        1.12770       -0.61010
C          5.65900        1.00550       -1.36540
N          5.67010        0.58310       -2.58150
H          0.32860       -0.85870        0.09740
H          0.53120        0.15800       -1.37940
H          0.55900        0.92350        0.25450
H          2.83060       -0.27120        0.80930
H          2.34970       -1.17910       -2.08790
H          3.88780       -1.43660       -0.94330
H          2.77850        1.22550       -2.03930
H          4.51020        1.54240        0.33150
H          6.59700        1.29700       -0.90470
H          4.81530        0.30740       -3.08270
