14
8591	1
O          2.80250        1.26640        0.04400
C          2.28040       -0.03010       -0.03400
C          2.87860       -0.85800        1.10760
N          3.01300       -2.30680        0.86540
C          4.20040       -1.41330        0.84110
C          5.02910       -1.62190        2.03240
C          5.72560       -1.76750        3.00550
H          2.36260        1.78860       -0.67500
H          2.51980       -0.46520       -1.03100
H          1.17700       -0.00080        0.10200
H          2.63080       -0.62570        2.16670
H          2.75710       -2.53020       -0.12480
H          4.66840       -1.42980       -0.16840
H          6.34110       -1.89540        3.85660
