17
7552	2
C          0.73090       -1.32450        0.18340
C          2.23330       -1.10890        0.02320
C          2.54960        0.33120       -0.37780
O          3.94340        0.47130       -0.51560
N          4.17480        1.76390       -0.81280
C          4.65280        2.67110        0.17310
N          4.85370        2.29500        1.38610
H          0.53530       -2.37790        0.47490
H          0.20680       -1.11740       -0.77390
H          0.32650       -0.65610        0.97320
H          2.61730       -1.80180       -0.75680
H          2.73780       -1.34230        0.98610
H          2.16690        1.01010        0.41950
H          2.04510        0.55020       -1.34700
H          4.05260        2.09400       -1.78220
H          4.85300        3.70090       -0.10330
H          4.67720        1.32690        1.69070
