14
8028	1
N          2.65200        0.48850       -1.98950
C          3.43280       -0.08240       -0.89850
C          2.91920        0.43050        0.41850
C          3.70370        1.11220        1.26090
O          3.19810        1.55510        2.43860
C          3.91660        2.25550        3.35280
O          5.09040        2.53580        3.15790
H          3.00120        0.09050       -2.89120
H          2.80900        1.52260       -2.01640
H          4.50940        0.16230       -1.04370
H          3.32430       -1.18790       -0.90980
H          1.88400        0.23880        0.68730
H          4.74090        1.30760        0.99760
H          3.43900        2.57230        4.27320
