12
9663	1
O          2.18220       -0.58840       -0.90280
C          2.00900        0.29970       -0.08270
C          0.79340        0.32610        0.69010
N         -0.18290        0.34810        1.31100
C          3.07790        1.33360        0.15000
C          3.35830        2.04880       -1.16960
C          2.72010        2.80610       -0.02240
H          4.07730        0.98980        0.49220
H          2.59370        2.09850       -1.97550
H          4.33710        2.55280       -1.31790
H          1.61310        2.88550        0.03410
H          3.36000        3.33410        0.71620
