11
7126	1
O          1.71090       -0.49510        0.70770
C          2.55870        0.35600        0.48490
C          3.12090        0.52680       -0.89930
C          2.92710        1.91880       -1.43530
O          2.35630        2.78330       -0.78780
C          4.55750        0.21200       -0.90200
C          5.73940       -0.04050       -0.89870
H          2.91220        0.98530        1.29040
H          2.61200       -0.17340       -1.59650
H          3.30460        2.15440       -2.42380
H          6.76630       -0.30230       -0.93410
