18
10365	1
C          0.97570       -0.04600        0.12060
C          2.50890       -0.13530       -0.00170
C          2.99210       -1.53480       -0.28110
C          2.85330       -1.60060       -1.77920
N          3.39820       -0.32250       -2.26780
C          2.39560        0.72830       -2.48070
C          3.09080        0.67570       -1.18310
H          0.64080       -0.64060        0.99720
H          0.43710       -0.43640       -0.76390
H          0.67510        1.01070        0.28340
H          2.91640        0.22890        0.96710
H          2.49020       -2.34380        0.29190
H          4.08340       -1.56890       -0.05710
H          1.79430       -1.74760       -2.08760
H          3.43280       -2.45770       -2.18230
H          1.36190        0.34790       -2.60030
H          2.78530        1.51180       -3.16280
H          4.07620        1.16140       -1.01740
