12
9196	1
F          1.25400       -0.63690       -0.41220
C          2.33280        0.11880        0.00660
C          2.79360        0.99840       -1.11200
N          2.81790        2.27230       -1.03720
N          3.28230        2.80310       -2.19900
C          3.56200        1.87970       -3.03260
C          3.28530        0.51640       -2.45370
H          3.15920       -0.55740        0.30860
H          2.02910        0.72990        0.88300
H          3.94780        2.07700       -4.02360
H          4.20920       -0.09250       -2.36550
H          2.49630       -0.02210       -3.01920
