16
7466	1
O          2.51810        0.99100        0.81350
C          2.14470        0.00500       -0.10910
C          2.80900       -1.32670        0.24710
C          4.34400       -1.23230        0.19220
C          5.02820       -2.55250        0.56930
C          4.70340       -3.62870       -0.37650
N          4.44980       -4.47870       -1.11960
H          2.03580        1.81570        0.54560
H          2.45020        0.30710       -1.13600
H          1.04110       -0.13530       -0.07610
H          2.45620       -2.09480       -0.47460
H          2.48900       -1.62940        1.26820
H          4.68420       -0.45640        0.91190
H          4.66760       -0.92660       -0.82750
H          4.72560       -2.85950        1.59310
H          6.12870       -2.40410        0.55950
