13
8541	1
F          2.99910        1.13050        0.29960
C          2.22420        0.02390        0.00410
C          2.81300       -1.20830        0.69420
C          2.78760       -2.54230       -0.04240
C          4.06330       -1.69050       -0.01460
C          5.07540       -2.34750        0.82250
N          5.87610       -2.86090        1.48170
H          2.17300       -0.09300       -1.10020
H          1.19710        0.19440        0.38670
H          2.95800       -1.20500        1.79760
H          2.09190       -2.43800       -0.90280
H          2.59390       -3.30420        0.74440
H          4.30130       -1.46170       -1.07540
