15
9602	1
O          0.94530        0.31450        0.17940
C          1.97440        0.73810        1.03360
C          3.31160        0.69730        0.34540
O          3.39450        0.30550       -0.81110
C          4.54420        1.13600        1.10320
C          5.91830        1.06440        0.44440
C          5.12450        2.35760        0.39760
H          0.97000       -0.67820        0.17400
H          1.99610        0.11030        1.95310
H          1.76110        1.78070        1.34960
H          4.41800        1.46730        2.15680
H          5.84340        0.32460       -0.38030
H          6.61880        0.88170        1.28700
H          4.97390        2.53110       -0.69010
H          5.74280        3.07640        0.97670
