17
9511	1
N          1.10390       -0.06040       -0.14770
C          2.56330       -0.03790       -0.12080
C          3.09430       -0.74550        1.13340
O          2.65650       -2.08330        1.15490
C          4.63820       -0.64000        1.18230
C          5.39140       -1.69620        1.85260
N          5.38430       -1.61260        0.36690
H          0.78060        0.42090       -1.01780
H          0.73770        0.48110        0.66890
H          2.91500        1.01830       -0.13440
H          2.95240       -0.55030       -1.02810
H          2.72240       -0.21370        2.04030
H          1.75690       -2.09080        1.57470
H          5.12400        0.35910        1.16940
H          4.90620       -2.64740        2.16450
H          6.41240       -1.43730        2.20280
H          4.74650       -2.35470       -0.00100
