17
9127	1
C          1.27080       -0.36220        0.70410
C          2.60090        0.02800        0.06950
C          3.04790        1.37650        0.55950
C          4.16510        1.60440        1.20680
C          4.27490        3.04880        1.52990
C          2.96270        3.59650        0.91780
O          2.33520        2.49280        0.37520
H          0.95540       -1.35720        0.32530
H          0.48530        0.38030        0.44720
H          1.37380       -0.41740        1.80910
H          2.48630        0.06560       -1.03460
H          3.35850       -0.74730        0.31830
H          4.89640        0.84930        1.46560
H          5.17210        3.48190        1.03840
H          4.30830        3.19180        2.63100
H          3.17500        4.33760        0.11770
H          2.31570        4.04770        1.70030
