14
9963	1
C          1.53640       -0.44270        0.13210
O          2.00380        0.49670       -0.80420
C          3.00640        1.26120       -0.17850
C          3.20520        2.55960       -0.96370
O          2.23070        2.86910       -1.91860
C          2.55440        2.59540        0.40410
F          3.38630        2.87720        1.47270
H          0.74230       -1.04960       -0.34920
H          1.07590        0.05510        1.01480
H          2.34520       -1.14470        0.43650
H          4.03200        0.83270       -0.16800
H          4.08400        3.23570       -0.89270
H          2.49050        2.35750       -2.72700
H          1.46050        2.51020        0.58030
