19
6509	1
N          1.31060       -0.09870       -0.23140
C          2.53710       -0.88840       -0.19050
C          3.71950       -0.06140       -0.69540
C          5.00180       -0.90240       -0.65390
C          6.22960       -0.04180       -0.94810
C          6.00550       -0.62020        0.45320
N          6.77260       -1.81890        0.80340
H          0.52670       -0.68680        0.13330
H          1.08970        0.14260       -1.22500
H          2.41570       -1.79950       -0.81880
H          2.73080       -1.20230        0.85860
H          3.81300        0.85660       -0.07270
H          3.53090        0.24730       -1.74640
H          5.07550       -1.81290       -1.28780
H          6.20660        1.05860       -0.79690
H          7.13740       -0.52520       -1.36710
H          5.53110       -0.04130        1.27510
H          7.04990       -2.38210       -0.03320
H          6.17850       -2.41980        1.41760
