16
6612	1
C          0.94550        0.41160       -0.28160
N          2.37570        0.35700        0.00410
C          3.09850       -0.61780       -0.80190
C          3.19820        0.86670       -1.09460
C          4.47820        1.58910       -0.79750
C          4.14170        2.99280       -0.83460
C          3.86430        4.14980       -0.86530
H          0.42130       -0.32920        0.33090
H          0.68650        0.22160       -1.33050
H          0.55540        1.39920       -0.01420
H          2.53810       -1.24470       -1.48510
H          3.92800       -1.10960       -0.30820
H          2.71510        1.21270       -2.00360
H          5.22370        1.34460       -1.56130
H          4.89090        1.30470        0.17670
H          3.61280        5.18500       -0.88590
