16
6701	1
N          0.92890        0.13650        0.08540
C          2.34770        0.17690        0.04020
N          3.03200        0.01600        1.11780
C          3.05170        0.41070       -1.28030
C          4.06650        1.53930       -1.32010
C          4.90400        0.52250       -2.07830
N          4.04990       -0.59740       -1.66060
H          0.43670       -0.02250        0.97630
H          0.37580        0.26380       -0.77430
H          2.57040       -0.14400        2.02560
H          2.33250        0.51540       -2.12730
H          4.52780        1.67510       -0.31680
H          3.78760        2.47990       -1.84070
H          5.97060        0.45310       -1.76810
H          4.78600        0.65600       -3.17920
H          4.48520       -0.99770       -0.79500
