20
10083	1
C         -1.52700        0.75620        0.12110
C         -1.51310       -0.74300       -0.14650
C         -0.31120       -1.49720        0.43200
C          0.98060       -1.24280       -0.35330
N          1.68810        0.01540       -0.07720
C          0.96610        1.21410        0.36820
C         -0.31820        1.53520       -0.40300
H         -1.62080        0.93080        1.21620
H         -2.44170        1.16830       -0.35930
H         -1.57820       -0.93360       -1.24060
H         -2.43550       -1.15720        0.31730
H         -0.54800       -2.57390        0.28270
H         -0.18020       -1.33200        1.52310
H          0.77260       -1.34110       -1.44250
H          1.69380       -2.05520       -0.09610
H          2.29160        0.24160       -0.90280
H          1.66280        2.07060        0.22780
H          0.76290        1.16330        1.45960
H         -0.17600        1.43680       -1.50070
H         -0.55480        2.60070       -0.18820
