12
9049	1
C          1.23680        0.05840        0.61020
C          2.46820        0.01720        0.09160
N          3.13010       -1.23020       -0.17120
C          4.35920       -1.38130       -0.68740
C          4.59110       -2.73550       -0.76750
N          3.49540       -3.36660       -0.29730
N          2.62430       -2.43210        0.05770
H          0.76100        1.01530        0.79830
H          0.69820       -0.85290        0.84920
H          2.97730        0.94970       -0.13520
H          5.02430       -0.57840       -0.97830
H          5.48070       -3.22790       -1.13620
