15
7023	1
C          2.68680        1.09990        0.35120
N          2.43100       -0.01720       -0.56260
C          2.96600       -1.29510       -0.06120
C          2.44600       -2.44050       -0.93390
F          2.89450       -3.65870       -0.45210
C          4.41000       -1.29510       -0.06120
C          5.60010       -1.29510       -0.06120
H          2.21360        2.01920       -0.05310
H          3.77710        1.28710        0.45790
H          2.24260        0.89400        1.34860
H          2.83120        0.20490       -1.50550
H          2.60580       -1.47130        0.97670
H          2.78480       -2.31850       -1.98580
H          1.33520       -2.44420       -0.92040
H          6.65830       -1.29480       -0.06130
