20
7446	1
C          0.96310        0.06540        0.03230
C          2.48700        0.04640       -0.04350
C          2.98530        0.48760       -1.41900
O          4.39560        0.44960       -1.41880
C          4.88230        0.85090       -2.68150
C          6.41020        0.81790       -2.66860
N          6.89990       -0.53710       -2.43120
H          0.63810       -0.25980        1.04310
H          0.53000       -0.62700       -0.72060
H          0.58010        1.09180       -0.15120
H          2.84730       -0.98460        0.16490
H          2.89640        0.72940        0.73230
H          2.62190        1.52440       -1.60680
H          2.57440       -0.21370       -2.18170
H          4.57200        1.89740       -2.90480
H          4.52650        0.16490       -3.48440
H          6.79470        1.50450       -1.88170
H          6.78380        1.16900       -3.65510
H          6.61270       -0.85030       -1.47640
H          7.94450       -0.51880       -2.45180
