15
9583	1
C         -0.04600        0.69190        1.70790
N          1.28140        1.28520        1.86370
C          1.51240        2.24360        2.81330
O          0.64090        2.58140        3.60040
N          2.29310        0.96760        0.93960
C          3.51870        0.46930        1.62240
C          2.61880       -0.48070        0.99710
H         -0.78070        1.07560        2.44620
H         -0.01500       -0.40780        1.82990
H         -0.43360        0.92550        0.69420
H          2.48490        2.72290        2.87490
H          3.47300        0.53650        2.73130
H          4.41190        0.76460        1.03320
H          2.05280       -1.08650        1.73460
H          2.94560       -0.85290        0.00390
