9
9462	1
O          1.10210       -0.24390       -0.58490
C          2.12890        0.06330       -0.00120
C          2.76800       -0.88140        0.92090
N          3.89920       -0.62200        1.60280
C          4.09430       -1.75730        2.30090
O          3.14130       -2.62280        2.04450
N          2.30240       -2.11350        1.19360
H          2.56970        1.04080       -0.16640
H          4.92100       -1.92880        2.97690
