15
7596	1
C          3.77420       -0.86500       -3.01710
C          2.90460       -0.11460       -2.32430
O          3.26860        0.70750       -1.29800
C          4.55970        1.03070       -0.90970
C          5.26600        1.92400       -1.93980
C          4.51030        3.20300       -2.15160
O          5.03360        4.27740       -1.90330
H          3.41280       -1.50210       -3.81780
H          4.83540       -0.86500       -2.80020
H          1.85270       -0.17440       -2.58390
H          5.14640        0.10720       -0.71510
H          4.50330        1.59000        0.04880
H          5.36310        1.40450       -2.91410
H          6.28980        2.14980       -1.56890
H          3.49390        3.17630       -2.53130
