18
6741	1
C          3.50480       -1.00540        0.61070
C          2.52090        0.01250        0.02260
O          1.62320        0.47010        1.00770
C          3.29130        1.15590       -0.68470
N          2.43110        2.27970       -1.13230
C          3.41740        2.46720       -0.04650
C          4.58570        3.33580       -0.50430
H          2.94640       -1.84790        1.07090
H          4.14240       -0.52960        1.38640
H          4.16050       -1.41180       -0.18890
H          1.92800       -0.52020       -0.75140
H          2.14630        0.71910        1.81390
H          3.99030        0.88800       -1.50620
H          1.48390        2.22180       -0.69280
H          2.91910        2.69950        0.91980
H          4.94470        3.06340       -1.52060
H          5.42490        3.22290        0.21280
H          4.26760        4.39900       -0.51650
