16
9770	1
O          2.53990       -0.78200        0.09170
C          2.18290        0.33880       -0.23820
C          3.05530        1.54250        0.00110
C          4.38740        1.19740        0.67960
C          5.20900        2.47430        0.92610
C          6.66070        2.33230        0.93370
N          5.97980        2.95360       -0.23270
H          1.21680        0.47150       -0.71360
H          2.49250        2.25690        0.63990
H          3.25770        2.02490       -0.97930
H          4.94650        0.46830        0.05090
H          4.18850        0.72210        1.66430
H          4.79820        3.31220        1.52830
H          7.14090        1.38110        0.61080
H          7.24140        3.12430        1.45080
H          5.94840        2.24790       -1.00520
