12
9633	1
F          2.44550       -1.15580        0.30690
C          2.14250        0.16660        0.04080
C          2.83410        0.60070       -1.21680
O          2.17660        0.98670       -2.17110
C          4.32980        0.54810       -1.31700
C          5.03240        1.81310       -1.66090
O          4.88480        1.38920       -0.33210
H          2.47750        0.79750        0.89040
H          1.04120        0.26930       -0.06380
H          4.86310       -0.42360       -1.26030
H          4.42490        2.72890       -1.82100
H          6.09890        1.73130       -1.95580
