15
7193	1
C          2.72280       -0.88540       -0.01390
O          2.48480        0.11390        0.90880
C          3.41630        0.97510        1.41400
C          2.94880        1.99700        2.42320
N          2.39720        1.32720        3.59680
C          4.71280        0.93000        1.03220
F          5.62850        1.79590        1.54380
H          1.77110       -1.41400       -0.22680
H          3.44980       -1.62010        0.39340
H          3.10390       -0.45150       -0.96290
H          2.16810        2.63480        1.95360
H          3.77380        2.66460        2.75280
H          1.55420        0.77420        3.31740
H          2.08230        2.05630        4.27710
H          5.05830        0.20180        0.30760
