13
10529	1
C         -0.86150        0.00010       -1.30360
C         -0.62520        0.92580       -0.13490
O         -1.21080        0.00010        0.73680
C         -0.62540       -0.92570       -0.13490
C          0.85830       -0.75140        0.22230
O          1.66980       -0.00020       -0.65270
C          0.85850        0.75120        0.22230
H         -0.18150       -0.00000       -2.18470
H         -1.93610        0.00020       -1.59570
H         -1.04610        1.95300       -0.17650
H         -1.04640       -1.95280       -0.17650
H          1.32340       -1.13930        1.15440
H          1.32370        1.13900        1.15440
