18
10564	1
C          0.95120       -0.10380       -0.01570
C          2.47630       -0.19900       -0.06590
C          3.14320       -0.42220       -1.41150
C          3.08800        0.98210       -0.79260
N          4.43340        1.34790       -0.32340
C          4.91750        2.61180       -0.92770
C          4.36290        2.62500        0.42260
H          0.53470       -1.09970        0.24030
H          0.51320        0.22640       -0.98290
H          0.65540        0.61950        0.77290
H          3.04810       -0.44640        0.85560
H          2.35310       -0.73340       -2.12830
H          4.01530       -1.08040       -1.20800
H          2.56460        1.60500       -1.55340
H          4.28120        2.97600       -1.76360
H          6.02480        2.58270       -0.99810
H          3.32930        3.02540        0.53930
H          5.10240        2.61760        1.25020
