15
7828	1
C          0.92190        0.05190       -0.11000
C          2.38420        0.04370       -0.06570
C          3.58920        0.03680       -0.02950
C          5.05160        0.02800        0.01480
O          5.54480        0.02380       -1.27530
C          6.86460        0.01500       -1.61500
C          7.85650        0.00870       -0.71150
H          0.58220       -0.13530       -1.14940
H          0.54700        1.03940        0.22930
H          0.52720       -0.74230        0.55660
H          5.38580       -0.88320        0.55550
H          5.39700        0.93610        0.55380
H          7.12450        0.01300       -2.66850
H          7.65990        0.01030        0.35480
H          8.88840        0.00170       -1.04710
