15
7483	2
F          2.72210       -0.43080       -1.28820
C          2.36390        0.15770       -0.08810
C          2.76810       -0.73120        1.08740
C          4.28910       -0.95250        1.12930
N          4.67330       -1.82510        2.22590
C          4.53760       -1.47630        3.53260
O          4.08580       -0.38730        3.85240
H          1.26320        0.30380       -0.07870
H          2.85330        1.15150       -0.00500
H          2.25530       -1.71290        0.99210
H          2.42110       -0.24370        2.02140
H          4.82790        0.01650        1.21570
H          4.59550       -1.43310        0.17430
H          5.09090       -2.74120        2.00350
H          4.85030       -2.16910        4.30720
