13
9392	3
N          1.23140        0.55420       -0.18700
C          2.50050       -0.09550        0.12070
C          3.00430       -0.83890       -1.07540
C          3.31550       -0.31670       -2.30910
N          3.72630       -1.34360       -3.06880
H          4.03910       -1.30400       -4.06370
N          3.67090       -2.44570       -2.33640
N          3.23400       -2.16530       -1.11590
H          0.90980        1.07180        0.66270
H          0.51570       -0.17810       -0.40270
H          2.36530       -0.79780        0.97300
H          3.24970        0.67280        0.40910
H          3.25150        0.71450       -2.63080
