9
9465	2
O          0.98420       -0.01430        0.08270
C          2.33170       -0.05420        0.07530
C          3.03510        0.86960        0.73180
N          4.43300        0.94950        0.80890
N          4.67960        1.94870        1.51110
N          3.51090        2.55610        1.91790
N          2.52110        1.94320        1.47440
H          0.47170       -0.68270       -0.39240
H          2.84700       -0.84170       -0.46730
