15
10241	1
C          1.73920       -0.14710        0.13980
C          0.77840       -1.20980        0.65710
C         -0.17760       -0.89450       -0.51460
C         -1.50380       -0.38630       -0.07150
C         -1.39560        0.94110        0.19770
O         -0.16310        1.39030       -0.06120
C          0.60800        0.42810       -0.69920
H          2.44600       -0.64890       -0.56030
H          2.26590        0.50960        0.86430
H          0.35190       -0.84430        1.62090
H          1.17950       -2.24230        0.73730
H         -0.06150       -1.50710       -1.43560
H         -2.39700       -0.97750        0.07830
H         -2.19590        1.56030        0.57980
H          0.86780        0.75970       -1.72830
