13
8445	1
F          2.97620       -1.06700        0.01620
C          2.12060        0.00790        0.17350
C          2.70700        1.23900       -0.51320
C          2.04420        2.65120       -0.08550
N          3.29280        2.95970        0.55240
C          3.84570        1.83150        0.22510
O          4.97690        1.45220        0.48280
H          1.96160        0.19050        1.25830
H          1.14370       -0.23810       -0.29210
H          2.94230        1.12460       -1.59310
H          1.23320        2.58910        0.67360
H          1.85850        3.35110       -0.92940
H          3.64480        3.77060        1.08130
