10
8257	1
O          1.40850       -0.72660       -0.44520
C          2.25460        0.08350       -0.10060
C          3.02680       -0.11830        1.16770
C          4.48200       -0.04660        0.91550
C          5.67940        0.00860        0.73430
C          7.08070        0.08390        0.51790
N          8.22390        0.14980        0.33960
H          2.42620        0.96970       -0.69830
H          2.75840       -1.09070        1.63750
H          2.74320        0.69320        1.86890
