14
10386	2
N          1.22490        0.20740        0.57150
C          2.37960       -0.00530        0.05300
N          2.78530       -1.25310       -0.41940
C          4.10970       -1.19320       -0.95570
C          4.53480        0.28430       -0.73300
N          3.78110        1.26110       -1.55690
C          3.40110        1.05380       -0.14840
H          0.54290       -0.55820        0.67510
H          2.21020       -2.10750       -0.38750
H          4.12650       -1.47200       -2.03080
H          4.76930       -1.86990       -0.37300
H          5.59440        0.60090       -0.82560
H          3.10330        0.77570       -2.19080
H          3.81530        1.70300        0.65070
