19
6506	1
C          0.82870        0.41820       -0.37560
C          2.28110        0.09240       -0.02360
C          2.99560       -0.97870       -0.85300
C          3.25330        0.51060       -1.10580
C          4.66420        0.93140       -0.67340
C          4.79170        2.45460       -0.64490
O          3.93690        3.00950        0.31930
H          0.15640       -0.18660        0.26720
H          0.58900        0.20330       -1.43960
H          0.63760        1.49380       -0.17900
H          2.66840        0.30630        0.99630
H          2.23080       -1.49860       -1.46850
H          3.61540       -1.54440       -0.12460
H          2.89070        0.76490       -2.12560
H          5.39190        0.52610       -1.40890
H          4.92800        0.52760        0.32950
H          4.59000        2.88810       -1.65200
H          5.83550        2.72730       -0.38210
H          3.05860        3.15170       -0.12100
