15
8921	1
C          2.79040        1.07820        0.17130
C          2.27090       -0.13580       -0.05200
N          3.06250       -1.32430       -0.07760
C          2.51350       -2.63170       -0.31650
C          3.77490       -3.53780       -0.23830
N          4.85900       -2.61540        0.03370
C          4.44050       -1.42140        0.11530
H          2.13890        1.94610        0.17900
H          3.84750        1.22970        0.34650
H          1.20060       -0.21600       -0.22060
H          2.04600       -2.67200       -1.32410
H          1.77860       -2.88880        0.47680
H          3.95650       -4.05630       -1.20380
H          3.69010       -4.27230        0.59080
H          5.10120       -0.59010        0.31340
