17
7673	1
C          1.32600        0.20580        0.37910
N          2.77690        0.15770        0.19530
C          3.11720       -0.50270       -1.06940
C          4.63430       -0.51420       -1.26660
C          4.98560       -1.16500       -2.57190
N          5.72260       -2.21610       -2.59510
O          6.02940       -2.78840       -3.73910
H          1.09330        0.71430        1.33830
H          0.89730       -0.82020        0.41000
H          0.85010        0.78460       -0.44170
H          3.18820       -0.38780        0.98890
H          2.65020        0.04950       -1.91600
H          2.73830       -1.55060       -1.06830
H          5.11260       -1.06250       -0.42470
H          5.01790        0.52850       -1.27320
H          4.61030       -0.73970       -3.49960
H          6.58150       -3.58150       -3.75030
