15
7729	1
C          3.00700       -3.57470        3.19180
C          4.05910       -2.80760        2.45770
N          4.80520       -1.97000        3.08230
O          5.73250       -1.29340        2.43680
C          6.53350       -0.39650        3.10370
C          7.51340        0.24230        2.13010
F          6.82480        0.91710        1.13810
H          3.20750       -4.66170        3.09260
H          2.01280       -3.34600        2.75510
H          2.99720       -3.30690        4.27030
H          4.18680       -2.96550        1.38990
H          7.10050       -0.92430        3.90120
H          5.90500        0.39460        3.56800
H          8.15210       -0.53910        1.66600
H          8.16310        0.96110        2.67250
