16
9885	1
C          1.06070        0.13240        0.00480
C          2.58000        0.08000        0.00350
C          3.06130       -1.28100       -0.03090
C          3.45800       -2.40280       -0.05920
C          4.19920       -3.62870       -0.01320
C          3.51710       -4.92780        0.30520
N          3.98560       -4.63900       -1.04560
H          0.71580        1.17090        0.03110
H          0.64730       -0.38540        0.87730
H          0.64730       -0.34070       -0.89270
H          2.95700        0.59100        0.89650
H          2.95710        0.63540       -0.86250
H          5.23050       -3.53160        0.31610
H          2.44450       -4.94790        0.45240
H          4.08120       -5.66800        0.85710
H          3.21580       -4.35670       -1.65270
