10
8614	1
O          2.07920        0.96770        0.04580
C          1.83610       -0.21590       -0.12530
C          2.91360       -1.23500        0.05900
O          3.00880       -2.10160       -1.04050
C          4.02730       -1.13380       -0.92010
C          5.27600       -1.80980       -0.55710
N          6.26250       -2.34150       -0.26850
H          0.83030       -0.52680       -0.38810
H          3.12500       -1.71630        1.03720
H          3.98010       -0.46870       -1.80760
