18
8377	1
C          0.93040       -0.08740        0.13870
N          2.39060       -0.13820       -0.02850
C          3.09610        0.93180        0.69520
C          4.04800       -0.06210        1.34410
C          3.04470       -1.10260        0.86700
C          3.64930       -2.30090        0.12990
O          2.63470       -3.09790       -0.41660
H          0.52500        0.77890       -0.42530
H          0.62570        0.00710        1.20530
H          0.47970       -1.01230       -0.27880
H          2.44930        1.40530        1.47240
H          3.59220        1.67090        0.02990
H          4.21370        0.02840        2.43870
H          4.97110       -0.10470        0.72350
H          2.38030       -1.40800        1.71200
H          4.28100       -2.90190        0.82250
H          4.30500       -1.95310       -0.69680
H          2.24110       -3.61240        0.33590
