15
10335	1
C          1.00780       -0.13160       -0.40130
C          2.33670        0.12650        0.32690
C          3.48640        1.00040       -0.39520
C          3.45720        1.17560       -1.94580
N          3.53460       -0.16730       -2.46630
C          3.54270       -1.00970       -1.52350
N          3.49380       -0.41730       -0.25980
H          0.25560        0.59680       -0.03390
H          0.65390       -1.15500       -0.15740
H          1.06380       -0.03300       -1.50260
H          2.36910        0.03360        1.43240
H          4.41200        1.31290        0.13300
H          4.32470        1.77890       -2.28680
H          2.51140        1.65300       -2.27770
H          3.64560       -2.07390       -1.68490
