20
9945	1
C          3.09560        0.37610        0.96090
N          2.22320        0.01590       -0.15520
C          2.95220        0.18910       -1.42200
C          2.21950       -0.51190       -2.59060
C          0.82530       -1.11970       -2.39560
C          2.23860        0.99440       -2.52690
C          3.23140        1.72390       -3.43060
H          2.54510        0.24580        1.91650
H          3.41860        1.43790        0.88050
H          3.98890       -0.28550        0.98610
H          1.38990        0.64700       -0.10620
H          3.96720       -0.26420       -1.47650
H          2.86300       -0.90810       -3.40660
H          0.21180       -0.59450       -1.63530
H          0.93280       -2.18280       -2.09670
H          0.27800       -1.07880       -3.36030
H          1.34630        1.53820       -2.14870
H          4.11100        1.09570       -3.69020
H          3.59030        2.63930       -2.91530
H          2.71870        2.02110       -4.36880
