11
9050	1
N          1.14780       -0.05190        0.64950
C          2.21970        0.10570       -0.03810
N          2.90440       -1.02970       -0.57950
C          4.02780       -1.01150       -1.31220
C          4.32340       -2.32140       -1.61390
N          3.36980       -3.09520       -1.05460
N          2.52120       -2.28760       -0.43320
H          0.65350        0.76330        1.04000
H          2.61000        1.10530       -0.21040
H          4.57940       -0.12560       -1.59950
H          5.16080       -2.68870       -2.19150
