14
7845	2
C          0.99270       -0.31920       -0.25680
N          2.35960        0.07370       -0.01390
C          2.66570        0.90680        0.91780
N          4.02110        1.26850        1.12580
C          4.37370        2.18720        2.15100
C          5.64870        2.53120        2.35110
F          5.96900        3.41090        3.33550
H          0.96470       -1.03940       -1.10020
H          0.38080        0.56930       -0.52280
H          0.56890       -0.80780        0.64680
H          1.88770        1.33510        1.54730
H          4.75330        0.85840        0.52510
H          3.60150        2.61830        2.78280
H          6.43800        2.11430        1.73310
