13
7548	1
F          0.09230        0.03110       -0.85500
C          0.65310        0.72720        0.19900
C          2.16530        0.86820        0.02160
O          2.82630       -0.38060        0.11850
C          2.86140       -1.04370       -1.12980
C          3.86680       -2.10470       -1.06810
N          4.66130       -2.94460       -1.01940
H          0.42830        0.20140        1.15090
H          0.19210        1.73670        0.23140
H          2.54560        1.50300        0.85030
H          2.41080        1.42510       -0.91120
H          3.14720       -0.37540       -1.97190
H          1.88410       -1.52560       -1.33680
