20
6677	1
C          2.37660       -0.88820        0.85850
N          2.07280        0.21100       -0.07040
C          0.61180        0.35200       -0.21560
C          2.80670        1.43560        0.34020
C          2.68840        2.69500       -0.52710
C          2.81890        3.49780        0.77330
C          2.29850        2.26790        1.52640
H          1.90370       -1.83190        0.51030
H          2.01270       -0.65680        1.88430
H          3.47220       -1.07060        0.89590
H          0.18290       -0.59430       -0.60950
H          0.34990        1.13040       -0.95660
H          0.11720        0.56440        0.75560
H          3.89760        1.23000        0.47740
H          1.65340        2.84650       -0.89870
H          3.43830        2.86010       -1.32940
H          2.27320        4.46050        0.86950
H          3.90380        3.62080        1.00580
H          1.18900        2.33560        1.53010
H          2.70140        2.05460        2.53890
