16
7575	1
N          2.25570       -0.93230       -0.80850
C          1.80840        0.10610        0.11650
C          2.63160        1.38810       -0.05780
O          3.98480        1.12040        0.25880
C          4.75940        2.28820        0.09810
C          6.15630        1.96250        0.41500
C          7.30740        1.72290        0.69110
H          1.79110       -1.83170       -0.54360
H          3.28270       -1.08160       -0.69400
H          1.91160       -0.25650        1.16280
H          0.73180        0.31700       -0.07150
H          2.21590        2.15510        0.63520
H          2.52610        1.73870       -1.11100
H          4.42120        3.08810        0.79540
H          4.72260        2.64720       -0.94990
H          8.30640        1.49570        0.96550
