9
9286	1
F          1.00220        0.18050       -0.02870
C          2.37760        0.05210       -0.06960
C          2.78540       -0.53050       -1.37940
N          3.59520        0.06240       -2.27330
N          3.68870       -0.79540       -3.27840
N          2.96220       -1.86890       -3.00330
O          2.41280       -1.69770       -1.83840
H          2.70910       -0.61650        0.75170
H          2.84160        1.05160        0.06660
