17
8649	1
F          2.73330       -1.27330        0.78100
C          2.54710       -0.10690        0.06140
C          2.84520        1.10470        0.94570
C          2.61800        2.43950        0.27480
C          2.72190        3.35560        1.48460
N          2.08070        2.64440        2.60120
C          1.91620        1.25580        2.14380
H          1.50090       -0.07360       -0.31080
H          3.23480       -0.11040       -0.81070
H          3.90080        1.05510        1.30330
H          1.57680        2.48110       -0.12170
H          3.32800        2.68660       -0.54320
H          2.29680        4.36680        1.30310
H          3.79740        3.47340        1.74540
H          1.13510        3.05160        2.79190
H          0.86190        1.11730        1.80230
H          2.12220        0.51870        2.94830
