17
7498	1
O          2.18380       -2.43970       -0.96790
C          1.89800       -1.29160       -1.71790
C          2.77690       -0.12680       -1.25210
C          4.27200       -0.40600       -1.43110
O          4.56090       -0.60980       -2.76840
C          5.79700       -0.87270       -3.27820
C          6.90060       -0.96510       -2.52100
H          1.58050       -3.14920       -1.31070
H          0.83290       -1.00590       -1.56820
H          2.07880       -1.48630       -2.79870
H          2.57270        0.07210       -0.17750
H          2.50770        0.78340       -1.83120
H          4.55850       -1.30180       -0.83740
H          4.84130        0.47320       -1.05740
H          5.89170       -1.01410       -4.35000
H          6.87010       -0.83370       -1.44530
H          7.85650       -1.17700       -2.98890
