15
7724	1
C          2.86780        0.83780       -1.02420
O          2.40780        0.15090        0.11850
C          3.01370       -1.12230        0.18970
O          4.30840       -1.00550        0.66120
C          5.13120       -2.06460        0.87460
N          4.73720       -3.26990        0.64240
N          5.56550       -4.34640        0.85630
H          2.42310        1.85400       -1.02250
H          2.53140        0.33520       -1.95780
H          3.97270        0.96890       -1.00660
H          2.99040       -1.65280       -0.79190
H          2.42040       -1.74020        0.89750
H          6.13480       -1.87920        1.24700
H          5.22410       -5.29800        0.66230
H          6.52630       -4.21780        1.20890
