14
8761	1
F          2.22630        1.50690       -0.26360
C          2.49160        0.16770       -0.04090
C          2.87220       -0.51510       -1.35550
C          3.11860       -2.04680       -1.18540
C          2.08430       -2.62170       -2.10960
N          1.38780       -1.72480       -2.67230
N          1.77610       -0.48330       -2.28740
H          1.59100       -0.31120        0.40010
H          3.33210        0.08540        0.68030
H          3.75810       -0.01990       -1.80970
H          2.92360       -2.40680       -0.15210
H          4.13750       -2.33570       -1.52010
H          1.92890       -3.67750       -2.28580
H          1.34250        0.37630       -2.65440
