15
6578	1
O          0.73620       -0.74230       -0.20860
C          2.10270       -0.50640       -0.03110
C          2.81020       -0.89670       -1.31670
C          2.70850        0.57120       -0.93140
N          3.86820        1.12830       -0.27460
N          3.74030        1.74170        0.95150
C          4.75430        2.25790        1.54930
H          0.28280       -0.04770        0.33400
H          2.62200       -1.10760        0.74580
H          2.24270       -0.97240       -2.26870
H          3.88840       -1.16570       -1.28430
H          1.87450        1.26770       -1.16510
H          4.78400        1.08790       -0.74940
H          4.62420        2.73470        2.51430
H          5.74380        2.22390        1.10220
