17
7676	1
C          1.43270       -3.00150        1.42910
O          2.77830       -2.73670        1.10500
C          3.02710       -1.35300        1.24030
C          4.49470       -1.06200        0.92770
C          5.40510       -1.78080        1.88160
N          6.21020       -1.11570        2.63370
N          7.05390       -1.75060        3.51440
H          1.25010       -4.08780        1.29860
H          0.73690       -2.47040        0.74190
H          1.21880       -2.76050        2.49410
H          2.81720       -1.00590        2.27890
H          2.40980       -0.77630        0.51400
H          4.66390        0.03550        0.99510
H          4.72630       -1.38800       -0.10890
H          5.37810       -2.86690        1.92760
H          7.68740       -1.19340        4.10430
H          7.06330       -2.77890        3.59600
