16
8767	1
N          2.13310        1.49250       -0.35170
C          2.53490        0.11910       -0.06230
C          2.87900       -0.62890       -1.35690
C          3.31490       -2.10150       -1.08630
C          2.35730       -2.84860       -1.93610
C          1.50270       -1.97890       -2.52640
O          1.77810       -0.71790       -2.19330
H          1.95150        1.98170        0.55440
H          1.23600        1.48410       -0.88930
H          1.71650       -0.40600        0.47990
H          3.43590        0.13890        0.58920
H          3.68780       -0.09050       -1.89920
H          3.15870       -2.41730       -0.03180
H          4.36400       -2.28240       -1.40370
H          2.32200       -3.92320       -2.05700
H          0.69610       -2.26370       -3.18860
