14
6743	1
C          1.03290        0.08590       -0.08840
C          2.53340        0.28140        0.15440
N          3.38800       -0.66520       -0.60440
C          3.33660        0.76890       -0.96370
C          4.65360        1.48140       -0.64260
F          4.43720        2.84590       -0.61560
F          5.19160        1.08310        0.57060
H          0.68310       -0.80310        0.47630
H          0.78780       -0.05310       -1.16370
H          0.48850        0.97930        0.28110
H          2.91030        0.39360        1.19280
H          2.82030       -1.18660       -1.31260
H          2.85550        0.93260       -1.95460
H          5.38720        1.25290       -1.44340
