10
8293	1
O          1.08960       -0.02140        0.04160
N          2.38300       -0.03040        0.03470
C          2.99220        0.11230       -1.06010
C          4.40510        0.10410       -1.03870
C          5.60110        0.10090       -1.02950
C          7.03000        0.09320       -1.01720
O          7.64630       -0.96560       -0.97750
H          0.69510       -0.15160        0.89200
H          2.42930        0.24130       -1.99890
H          7.53890        1.05160       -1.06800
