14
7390	1
F          1.02510        0.42990        0.80280
C          2.18280       -0.05630        0.21740
C          2.78990        0.92170       -0.80740
C          4.07730        0.50470       -1.52120
F          3.84470       -0.62880       -2.27800
C          1.89860        1.82540       -1.52480
N          2.78370        2.33950       -0.43210
H          1.93910       -1.01120       -0.29340
H          2.92750       -0.26310        1.01420
H          4.86130        0.28240       -0.76740
H          4.45700        1.30860       -2.18860
H          0.83830        1.94880       -1.21060
H          2.25130        2.27710       -2.47600
H          2.19770        2.48680        0.42170
