17
8320	1
N          0.95910        0.28380       -0.12670
C          2.38220        0.04420        0.08570
C          2.90130       -1.00010       -0.90650
C          4.34580       -1.47530       -0.73820
C          3.86580       -2.85890       -1.18500
C          2.46670       -2.45470       -0.71290
F          1.41930       -2.88000       -1.51020
H          0.64130        1.01680        0.54770
H          0.42640       -0.59120        0.08080
H          2.55800       -0.28930        1.13260
H          2.93580        0.99330       -0.07920
H          2.74650       -0.69880       -1.97100
H          4.59400       -1.53270        0.34790
H          5.14750       -0.96930       -1.31650
H          4.34000       -3.76130       -0.74450
H          3.87950       -2.88890       -2.30070
H          2.34850       -2.69990        0.36900
