12
8975	1
C          1.04960       -0.08270       -0.05160
N          2.49390       -0.06890       -0.00480
C          3.16070        0.36640        1.00730
N          4.50490        0.38170        1.05650
C          4.75070        0.90910        2.27670
O          3.62340        1.18330        2.89790
N          2.62370        0.85870        2.13800
H          1.61670        0.97230        2.38960
H          0.72180       -0.50260       -1.02460
H          0.65270        0.95090        0.04140
H          0.64510       -0.71880        0.76460
H          5.73810        1.08080        2.68350
