18
7917	2
C          1.96590        1.03850       -0.24260
C          2.97480        0.03790        0.30160
N          3.49180       -0.77190       -0.77800
C          4.33120       -1.72490       -0.56310
N          4.82050       -2.53280       -1.63170
N          4.46460       -2.31800       -2.96680
C          5.68020       -2.09020       -3.74470
H          1.55960        1.65090        0.59010
H          1.12590        0.50220       -0.73400
H          2.45120        1.71120       -0.98100
H          2.46830       -0.61200        1.04890
H          3.80700        0.58360        0.79840
H          4.66120       -1.94080        0.45060
H          5.44290       -3.32140       -1.39890
H          3.84500       -1.48170       -3.06360
H          6.33500       -2.98760       -3.70440
H          6.23480       -1.20720       -3.35860
H          5.41060       -1.90850       -4.80670
