20
6508	1
C          3.02180        1.54120        0.91790
C          2.77270        0.15610        0.32080
C          3.44810       -0.03270       -1.04340
C          4.97870        0.04930       -0.93050
C          5.62380       -0.01680       -2.31510
C          5.67400        1.27810       -1.50060
N          6.91790        1.56360       -0.77950
H          2.48950        1.62520        1.88910
H          2.64170        2.33040        0.23490
H          4.10470        1.70400        1.09950
H          1.67670        0.02250        0.19250
H          3.13700       -0.62030        1.02830
H          3.04540        0.71740       -1.76100
H          3.18160       -1.04250       -1.42370
H          5.51460       -0.69110       -0.29700
H          5.04620        0.25210       -3.22590
H          6.66660       -0.38690       -2.41100
H          4.94570        2.10730       -1.63730
H          7.48040        0.70240       -0.58740
H          6.67560        2.00890        0.13480
