17
7569	1
C          0.97150        0.16900       -0.17520
C          2.49330        0.13440       -0.05300
O          2.95520        1.42930        0.27470
C          4.36390        1.42880        0.39690
C          4.82930        2.85130        0.72770
C          6.29430        2.92890        0.86510
C          7.49430        3.00510        0.98030
H          0.57230       -0.83390       -0.43550
H          0.66360        0.88640       -0.96170
H          0.51450        0.49360        0.78070
H          2.91290       -0.20330       -1.02570
H          2.76320       -0.59730        0.73950
H          4.84030        1.10940       -0.55600
H          4.68490        0.74630        1.21400
H          4.35560        3.19240        1.67000
H          4.50600        3.54630       -0.07280
H          8.54810        3.07690        1.07580
