19
8380	1
C          0.87360        0.05190       -0.01090
C          2.39500        0.04290        0.10220
C          3.04220        1.04500        1.06340
C          4.07720       -0.03980        1.38680
C          3.03820       -1.07040        0.93240
C          3.54010       -2.27970        0.19420
C          4.26660       -3.20930        0.81830
H          0.54280        0.99100       -0.50130
H          0.40300       -0.01610        0.99290
H          0.54210       -0.81240       -0.62340
H          2.90090        0.12160       -0.89040
H          2.38910        1.17630        1.95900
H          3.39420        2.02000        0.66500
H          4.48140       -0.10490        2.41920
H          4.89270        0.02250        0.62680
H          2.38060       -1.33030        1.79670
H          3.30690       -2.40220       -0.85940
H          4.51020       -3.10820        1.87180
H          4.62080       -4.07790        0.27300
