11
7059	1
C          2.29970       -0.61120        1.17620
O          2.49890        0.06200       -0.04800
C          2.98350       -0.83300       -1.03010
C          2.51120       -0.38470       -2.34170
N          2.14560       -0.02710       -3.38050
C          4.42750       -0.83300       -1.03010
N          5.57850       -0.83300       -1.03010
H          2.00730        0.13550        1.94250
H          3.23660       -1.09360        1.53420
H          1.46820       -1.34560        1.09600
H          2.61500       -1.87760       -0.90100
