16
7553	2
C         -0.32550       -0.46540       -0.74880
C          1.10980        0.05150       -0.79440
C          1.98090       -0.63040        0.25980
O          3.28930       -0.11730        0.17330
N          4.01960       -0.75500        1.10670
C          4.84490       -1.76610        0.75100
O          5.51920       -2.33460        1.59480
H         -0.93080        0.04840       -1.52510
H         -0.77740       -0.26360        0.24570
H         -0.34890       -1.55850       -0.94550
H          1.10550        1.14880       -0.61570
H          1.53290       -0.14280       -1.80400
H          1.98140       -1.72730        0.06140
H          1.55040       -0.41940        1.26590
H          3.96840       -0.45160        2.09220
H          4.91030       -2.07680       -0.28710
