18
6561	1
N          0.69280        0.26890       -0.89310
C          1.99240        0.16360       -0.22320
C          2.71410       -1.12350       -0.66310
C          3.22860        0.24050       -1.10410
C          4.43430        0.82960       -0.36410
C          5.69410        0.46090       -1.09660
C          6.50870        1.38980       -1.60650
H          0.06830       -0.49220       -0.54040
H          0.76550        0.18190       -1.93310
H          1.99160        0.14610        0.88790
H          2.42430       -1.63950       -1.60330
H          3.47830       -1.56920        0.00940
H          2.98680        0.59390       -2.13020
H          4.50800        0.44340        0.67630
H          4.30730        1.93300       -0.30810
H          5.94750       -0.58910       -1.21360
H          6.28420        2.44730       -1.50710
H          7.41070        1.09000       -2.13050
