10
8609	1
N          1.07950       -0.11080       -0.18120
C          2.22690       -0.02370       -0.05920
C          3.68560        0.09600        0.09770
N          4.44330       -0.65630       -0.92760
C          4.36410        0.81700       -0.97750
C          5.64990        1.40880       -0.59850
N          6.66250        1.88180       -0.29870
H          4.16150       -0.04000        1.09250
H          3.79450       -1.03970       -1.65600
H          3.85320        1.14730       -1.91020
