14
9016	1
C          1.00020        0.07790        0.24330
C          2.49110       -0.02570       -0.05650
N          2.80550       -1.32460       -0.64460
C          3.33740       -1.55620       -1.85520
C          3.46050       -2.92110       -1.97840
N          3.00100       -3.47770       -0.83850
N          2.61070       -2.48870       -0.04620
H          0.77660        1.07070        0.68740
H          0.69530       -0.71130        0.96280
H          0.41500       -0.03680       -0.69380
H          3.07000        0.10160        0.88320
H          2.77380        0.78950       -0.75810
H          3.60990       -0.79990       -2.57990
H          3.85150       -3.47090       -2.82360
