16
9808	1
C          0.92770       -0.56550       -1.28130
C          2.09930        0.36140       -1.23100
N          3.10510        0.17760       -2.00740
O          4.13720        0.99300       -1.96420
C          5.21000        0.79360       -2.79930
C          5.49080        1.91720       -3.78600
C          6.25350        1.84980       -2.47660
H          0.01460        0.00940       -1.54050
H          0.79040       -1.03920       -0.28720
H          1.08070       -1.36120       -2.04180
H          2.09190        1.19280       -0.53090
H          5.76340       -0.16480       -2.69810
H          4.54820        2.50320       -3.85240
H          5.88310        1.39250       -4.68280
H          5.96730        2.78220       -1.94370
H          7.30990        1.68620       -2.77900
