18
6543	1
C          0.66960        0.13390       -0.52490
C          2.06290        0.33730        0.06030
O          2.80530       -0.86250        0.00900
C          3.21730        0.17270       -0.85450
C          4.54820        0.78330       -0.40820
C          5.71480       -0.12440       -0.80370
N          6.98160        0.46880       -0.38850
H          0.05130       -0.44400        0.19320
H          0.69620       -0.41360       -1.49180
H          0.19620        1.12400       -0.68800
H          2.19410        0.81770        1.05310
H          3.03890       -0.10230       -1.91610
H          4.56840        0.94270        0.69310
H          4.66170        1.77020       -0.90570
H          5.71870       -0.28080       -1.90590
H          5.59760       -1.11140       -0.30480
H          7.13010        1.36230       -0.91200
H          7.75490       -0.18420       -0.65110
