10
7047	1
F          2.73120        1.15590       -0.57650
C          2.30320        0.01340        0.08050
C          2.84210       -0.00860        1.51270
C          2.39480       -1.19880        2.24570
N          1.97630       -2.13810        2.78080
C          4.28610       -0.00860        1.51270
N          5.43710       -0.00860        1.51270
H          2.64940       -0.87920       -0.48540
H          1.19270        0.01330        0.09370
H          2.48290        0.89110        2.05560
