14
7002	1
C          2.42390       -0.27670        1.14520
O          2.29180       -0.08690       -0.25040
C          2.80400        1.17140       -0.66850
O          2.32800        2.24380        0.12800
C          1.00660        2.57210       -0.24120
C          4.24800        1.17140       -0.66850
N          5.39910        1.17140       -0.66850
H          2.14960       -1.32570        1.37930
H          1.72230        0.37610        1.70730
H          3.47180       -0.14050        1.49100
H          2.52520        1.31950       -1.73750
H          0.62630        3.33660        0.46680
H          0.32720        1.69430       -0.16300
H          0.97680        3.02010       -1.25870
