16
10534	1
C         -1.29520        0.64250       -0.07950
C         -1.04620       -0.85290       -0.26190
C         -0.29860       -1.52250        0.87210
C          0.47040       -1.08830       -0.37020
C          1.07160        0.32820       -0.42590
N          0.95400        1.04150        0.85610
C          0.03790        1.34270       -0.26650
H         -1.77440        0.88520        0.89350
H         -1.96310        0.97150       -0.90280
H         -1.90820       -1.53880       -0.40410
H         -0.28580       -2.63290        0.89570
H         -0.10970       -0.93170        1.79170
H          0.52440       -1.69030       -1.30120
H          2.04050        0.54260       -0.92800
H          1.70350        1.77290        0.87420
H          0.09380        2.44040       -0.44050
