12
10432	1
O          1.02410        0.02470       -0.37820
C          2.19800        0.12450       -0.06140
C          2.97040        1.34300       -0.14840
C          4.21170        1.02640        0.30700
N          4.28370       -0.33900        0.66870
C          4.39520       -1.35700       -0.29460
C          3.03530       -0.99940        0.49530
H          2.64010        2.31700       -0.48400
H          5.03310        1.72340        0.40430
H          5.05450       -2.15790        0.09860
H          4.52470       -0.94480       -1.31990
H          2.76480       -1.44290        1.47610
