18
7570	1
C          0.88300       -0.04310        0.13750
C          2.40880        0.02100        0.09080
C          2.89870        0.88710       -1.07610
N          4.36590        0.92300       -1.08340
C          4.86010        1.74160       -2.19230
C          6.32790        1.72820       -2.19710
C          7.53370        1.71780       -2.20190
H          0.56790       -0.67210        0.99840
H          0.48450       -0.49410       -0.79870
H          0.45590        0.97630        0.26400
H          2.80900       -1.01260       -0.01880
H          2.78550        0.44670        1.04770
H          2.49640        1.92060       -0.95680
H          2.51840        0.46460       -2.03690
H          4.72540       -0.05470       -1.20130
H          4.51220        2.79490       -2.07950
H          4.49680        1.34450       -3.16860
H          8.59210        1.70170       -2.19930
