17
7715	1
C          0.72460       -0.00260        0.02710
C          2.24380        0.13480        0.06580
C          2.87790       -0.96050        0.92150
O          4.25000       -0.80020        0.93000
C          5.09970       -1.61800        1.60340
N          4.65770       -2.61550        2.29020
N          5.51260       -3.44720        2.97420
H          0.29370        0.80550       -0.60080
H          0.30310        0.07990        1.05160
H          0.43650       -0.98320       -0.40830
H          2.50720        1.13000        0.48570
H          2.64030        0.06930       -0.97080
H          2.62130       -1.95720        0.49830
H          2.48770       -0.89160        1.96140
H          6.16620       -1.41730        1.55440
H          5.13160       -4.23630        3.51470
H          6.53270       -3.29470        2.95600
