16
10243	1
C          1.54960       -0.31040        0.34500
N          0.80830       -1.53660        0.03710
C         -0.16590       -0.71590       -0.68520
C         -1.36320       -0.39140        0.15040
C         -1.35590        0.90910        0.56580
C         -0.17050        1.64780        0.06610
C          0.68830        0.54650       -0.59360
H          2.60810       -0.38870        0.01420
H          1.43460       -0.03380        1.41900
H          0.40530       -1.94480        0.91330
H         -0.40070       -1.05670       -1.71630
H         -2.14840       -1.09420        0.39470
H         -2.15060        1.35130        1.15240
H          0.40190        2.17690        0.85700
H         -0.54040        2.37360       -0.68830
H          1.30060        0.80580       -1.48500
