15
6694	1
C          1.68860       -0.61790       -1.15670
C          2.51220       -0.17930        0.01520
O          2.48760       -0.82800        1.05060
C          3.38070        1.04830       -0.09860
C          2.65330        2.36840       -0.16210
O          3.42060        2.89740        0.89610
C          3.97550        1.62900        1.16420
H          1.11630       -1.53840       -0.91270
H          2.35300       -0.82800       -2.02070
H          0.97300        0.18420       -1.43330
H          4.15550        1.00480       -0.89630
H          1.59130        2.30810        0.17010
H          2.81160        2.90480       -1.12300
H          3.52110        1.24210        2.10430
H          5.08720        1.63730        1.15380
