16
7160	1
N          1.20990       -1.01620       -0.83340
C          1.96300       -0.17440        0.09280
C          2.70620       -1.01180        1.10490
C          1.93470       -1.87380        2.08940
N          2.13670       -1.41780        3.46340
N          3.99710       -0.97740        1.10580
O          4.71260       -1.70310        1.93940
H          0.76690       -0.39970       -1.55240
H          0.43570       -1.50240       -0.32780
H          1.28060        0.53000        0.61710
H          2.69060        0.42700       -0.49650
H          2.23850       -2.93840        1.98330
H          0.84760       -1.80750        1.87450
H          3.12360       -1.57770        3.76140
H          1.53110       -1.99210        4.09330
H          5.67740       -1.65530        1.91640
