14
6998	1
C          4.98670        2.21940        0.89500
O          4.49800        2.87470       -0.25510
C          3.89290        1.94600       -1.14060
C          2.72240        2.64010       -1.83680
F          2.07990        1.76540       -2.69610
C          4.88820        1.46040       -2.16490
O          6.04480        1.85240       -2.15040
H          5.54890        2.95590        1.50500
H          5.69860        1.40570        0.63150
H          4.14900        1.84020        1.52040
H          3.46750        1.06290       -0.60480
H          3.08110        3.52040       -2.41270
H          1.99140        2.98910       -1.07670
H          4.57520        0.75240       -2.92550
