18
9787	1
C          1.96040       -1.32240       -0.64210
C          2.43760       -0.13390       -0.26040
C          3.20430        0.75130       -1.20640
C          4.60870        1.02130       -0.66690
N          5.31330        1.94950       -1.57350
C          6.77810        1.90710       -1.36300
C          6.19550        1.25160       -2.53790
H          1.41060       -1.93670        0.06380
H          2.11250       -1.68890       -1.65260
H          2.26710        0.20390        0.75780
H          2.65680        1.71250       -1.31170
H          3.28630        0.28440       -2.21300
H          5.13630        0.04790       -0.52430
H          4.52480        1.50490        0.33110
H          7.08500        1.26500       -0.50730
H          7.20470        2.91790       -1.53220
H          6.07770        0.14550       -2.52350
H          6.23420        1.82870       -3.48500
