12
8068	2
N          0.97630       -0.00160        0.38530
C          2.25900       -0.01170        0.38780
N          2.97910        1.17680        0.10440
C          4.40030        1.17700        0.10440
C          5.08150        2.29810       -0.16290
C          6.48750        2.29810       -0.16290
N          7.63850        2.29810       -0.16290
H          0.44700       -0.86140        0.59030
H          2.79080       -0.93430        0.60770
H          2.46200        2.04560       -0.10270
H          4.93800        0.25630        0.32390
H          4.55500        3.22170       -0.38310
