16
7572	1
O          2.63710        0.26160       -1.27320
C          2.16840       -0.15920       -0.02080
C          2.68320        0.78170        1.07510
N          4.14750        0.73420        1.15570
C          4.64470        1.67930        2.16130
C          6.11260        1.65030        2.19310
C          7.31820        1.62820        2.22110
H          2.33960       -0.42390       -1.92640
H          2.50750       -1.19780        0.18580
H          1.05840       -0.13730       -0.02030
H          2.24680        0.47790        2.05190
H          2.34440        1.81560        0.84590
H          4.53370        1.01220        0.22480
H          4.26260        1.40470        3.16510
H          4.31240        2.71490        1.93020
H          8.37660        1.60700        2.24370
