17
8513	1
N          3.42130       -1.12270       -0.35700
C          2.62050        0.08980       -0.23010
C          2.99380        0.83300        1.06250
N          4.26160        1.59700        0.97510
C          2.95590        2.29160        1.03050
C          2.75520        3.00050        2.37090
O          3.44370        4.22030        2.37800
H          3.14260       -1.61390       -1.23700
H          3.20720       -1.76060        0.44410
H          1.54200       -0.17680       -0.18770
H          2.77760        0.72560       -1.12970
H          2.91620        0.31690        2.04360
H          4.59730        1.63760       -0.01540
H          2.72780        2.82360        0.07910
H          3.06640        2.37790        3.24190
H          1.67270        3.20970        2.49780
H          4.39960        4.00560        2.53840
