16
10346	1
O          0.93740       -0.05040       -0.05790
C          2.33940       -0.13040       -0.11400
C          2.77660       -1.54870       -0.40060
N          2.52560       -1.72770       -1.81910
C          3.00160       -0.46900       -2.40950
C          2.01950        0.64500       -2.61390
C          2.85920        0.64980       -1.32800
H          0.66250       -0.45660        0.80530
H          2.76430        0.26420        0.83680
H          2.26370       -2.30570        0.23130
H          3.87450       -1.63610       -0.22870
H          1.49580       -1.83200       -1.98100
H          4.01090       -0.44910       -2.87950
H          0.94470        0.42850       -2.44580
H          2.35180        1.46160       -3.28770
H          3.91480        0.99670       -1.26490
