14
9208	2
C          1.53350        0.04040        0.97680
N          2.69180        0.04390        0.11530
C          3.28370       -1.16760       -0.32170
C          4.38270       -1.27390       -1.13880
N          4.63200       -2.57980       -1.32080
H          5.39950       -2.99920       -1.89050
C          3.68910       -3.24010       -0.61770
N          2.84160       -2.39640        0.01040
H          1.22680        1.08370        1.20220
H          1.77340       -0.47650        1.93000
H          0.69100       -0.48040        0.47460
H          3.09500        0.94350       -0.18690
H          4.95990       -0.46650       -1.57020
H          3.61890       -4.31840       -0.56260
