15
7966	3
C          2.80560       -1.13260       -0.70970
N          4.05620       -0.61150       -0.22170
N          4.08670        0.60650        0.41840
C          5.18680        1.10140        0.86700
N          5.17110        2.36590        1.52340
C          6.32550        3.01570        2.06240
N          7.50850        2.50970        2.00420
H          2.96850       -2.11810       -1.19520
H          2.37210       -0.43050       -1.45250
H          2.09730       -1.25840        0.13590
H          4.92150       -1.15820       -0.35690
H          6.10790        0.54730        0.73790
H          4.26620        2.85100        1.61920
H          6.19890        3.98030        2.54300
H          7.72170        1.60490        1.56980
