11
9900	1
O          0.89020        0.00260       -0.10760
C          2.10910       -0.01960       -0.14110
C          2.86910        0.63900        0.88670
C          3.50740        1.19070        1.74790
C          4.28300        1.85980        2.79560
C          5.65590        2.28140        2.42270
O          4.57110        3.17720        2.40200
H          2.62010       -0.53630       -0.94600
H          3.95340        1.85110        3.85500
H          6.00230        2.12380        1.37890
H          6.34070        2.57380        3.24540
