14
7070	1
C          1.97390       -0.94500       -1.26450
N          1.98790        0.51750       -1.19030
N          3.06620        1.04540       -1.91170
C          2.82290        1.77450       -3.11690
N          1.63140        1.94180       -3.57290
C          4.35060        0.91000       -1.46730
O          4.59550        0.33130       -0.41980
H          1.06430       -1.32650       -0.75570
H          2.85950       -1.39010       -0.76680
H          1.94100       -1.27080       -2.32600
H          2.02430        0.85330       -0.19940
H          3.65590        2.19950       -3.66970
H          0.80230        1.56180       -3.09470
H          5.17400        1.33300       -2.03610
