18
6889	1
C          1.05340       -0.00470       -0.12540
N          2.52030       -0.01120       -0.01940
C          3.05210       -1.08260        0.83680
C          3.88240       -0.25850        1.81780
C          4.53170        0.74600        0.87160
C          3.06560        1.14470        0.70810
C          2.87680        0.81540        2.19610
H          0.71870       -0.92020       -0.65730
H          0.72700        0.87380       -0.72120
H          0.55180        0.02840        0.86340
H          3.69250       -1.77040        0.24240
H          2.26410       -1.66710        1.36710
H          4.45750       -0.82490        2.58040
H          5.07410        0.36570       -0.02430
H          5.13350        1.51470        1.41450
H          2.78520        2.12930        0.27580
H          1.88000        0.50100        2.57310
H          3.31750        1.59240        2.86670
