15
10055	1
C         -1.23490       -0.69700       -0.49360
O         -1.14370        0.71140       -0.55080
C         -0.00490        0.97830        0.24500
C         -0.01140       -0.06710        1.34070
C         -0.00550       -1.12450        0.30530
C          1.23330       -0.69730       -0.47910
O          1.14310        0.71110       -0.53740
H         -1.24270       -1.15230       -1.50760
H         -2.16520       -0.97710        0.04970
H         -0.00720        2.01160        0.65110
H         -0.92750       -0.04700        1.97530
H          0.89710       -0.04720        1.98600
H         -0.00740       -2.19080        0.61680
H          1.25290       -1.15260       -1.49300
H          2.15710       -0.97750        0.07500
