20
9744	1
C          0.97150        1.01090        0.04630
C          2.45840        0.66840        0.05320
C          2.70320       -0.72240        0.65010
C          4.19380       -1.06890        0.65190
N          4.38050       -2.43360        1.18380
C          5.77650       -2.65930        1.62230
C          4.72770       -2.44550        2.62430
H          0.82430        2.02130       -0.39030
H          0.56960        1.00890        1.08200
H          0.40840        0.27400       -0.56540
H          3.00000        1.43290        0.65190
H          2.83760        0.69890       -0.99160
H          2.15500       -1.48310        0.05160
H          2.32280       -0.74850        1.69500
H          4.74960       -0.28700        1.22220
H          4.56870       -1.04810       -0.39480
H          6.45750       -1.80900        1.39370
H          6.05790       -3.71590        1.43170
H          4.64790       -1.44570        3.10490
H          4.31100       -3.36070        3.09430
