13
7598	1
O          2.32910        0.82730        1.40430
C          1.70340       -0.03080        0.80050
C          2.37310       -1.28120        0.29580
C          3.87270       -1.34030        0.63370
O          4.44480       -2.52210        0.19550
C          4.62190       -2.85560       -1.10970
O          4.34130       -2.07440       -2.00660
H          0.64250        0.11010        0.62250
H          2.22850       -1.32410       -0.80310
H          1.86650       -2.15770        0.75340
H          3.98400       -1.29750        1.73850
H          4.41480       -0.47250        0.19650
H          5.04300       -3.82330       -1.35820
