18
9735	1
C          1.00670        0.11120        1.50140
C          2.35390       -0.17480        0.85560
O          3.12370       -0.96670        1.73360
C          4.33730       -1.32810        1.10370
C          5.27630       -2.10600        2.04800
C          5.16490       -1.89440        3.48860
N          4.63510       -3.14170        2.87530
H          0.39010        0.73880        0.82380
H          1.15130        0.65170        2.46100
H          0.46980       -0.84110        1.69810
H          2.85770        0.79990        0.66510
H          2.16140       -0.70820       -0.10360
H          4.89650       -0.41940        0.78460
H          4.14040       -1.98030        0.22360
H          6.26360       -2.45160        1.67550
H          4.32100       -1.31620        3.92640
H          6.05030       -2.16290        4.10160
H          3.59350       -3.06550        2.82340
