14
9576	1
F          1.86390       -2.14930        0.69010
C          2.44470       -1.02540        0.12580
C          3.51970       -0.44510        1.01060
C          3.85800       -0.98550        2.18710
C          3.05170       -1.41660       -1.22190
C          2.18350       -1.26770       -2.41260
O          3.18890       -0.32360       -2.08560
H          1.65280       -0.25520       -0.00160
H          4.03870        0.44930        0.67760
H          3.36900       -1.87800        2.56340
H          4.63880       -0.52760        2.78560
H          3.90160       -2.12720       -1.30140
H          1.20370       -0.75350       -2.32010
H          2.49390       -1.77190       -3.35110
