14
10115	1
C          0.85360       -1.05770        0.39840
C         -0.49080       -1.60490       -0.07410
C         -1.55320       -0.56130       -0.34860
N         -1.39690        0.71090       -0.17240
O         -0.27680        1.25960        0.26700
C          0.93500        1.14790       -0.39910
O          1.37030       -0.18850       -0.58450
H          1.56140       -1.90450        0.52170
H          0.78430       -0.58380        1.40600
H         -0.87710       -2.31530        0.68730
H         -0.32290       -2.16550       -1.01880
H         -2.51410       -0.91470       -0.70750
H          1.70900        1.70350        0.17060
H          0.83220        1.62290       -1.39750
