17
7733	1
C          0.67190        1.10860        0.35860
C          2.16930        1.11440        0.44810
C          2.93730        1.12860       -0.65240
C          4.44010        1.13390       -0.56350
C          5.00740        2.38870       -1.23990
C          6.51150        2.45020       -1.20790
O          7.17400        1.56620       -0.68610
H          0.27960        0.19850        0.85780
H          0.31640        1.11730       -0.69420
H          0.27170        2.00550        0.87520
H          2.62730        1.10710        1.43310
H          2.47600        1.13540       -1.63650
H          4.82360        0.22560       -1.07630
H          4.77550        1.10690        0.49740
H          4.61180        3.29140       -0.72600
H          4.68310        2.41300       -2.30290
H          7.01630        3.29830       -1.65850
