17
6885	1
C          1.02990       -0.08270       -0.00540
C          2.56110       -0.10420        0.01610
C          3.14900       -1.23270        0.87700
C          3.90270       -0.32160        1.84370
C          4.61330        0.64040        0.92690
C          3.16510        1.05010        0.81600
O          2.92650        0.64380        2.13890
H          0.65150       -0.98910       -0.52330
H          0.67600        0.81480       -0.55510
H          0.61210       -0.05850        1.02390
H          2.96090       -0.11020       -1.02360
H          3.83420       -1.90090        0.31000
H          2.38200       -1.81260        1.43710
H          4.47730       -0.77910        2.67740
H          5.16810        0.26590        0.03580
H          5.18760        1.39000        1.51660
H          2.94230        2.09710        0.51690
