16
8353	1
O          1.01570        0.06230        0.00990
C          2.41260       -0.01080       -0.04710
C          2.82700       -0.82310       -1.27950
N          4.26990       -1.07920       -1.40530
C          3.92890       -2.46840       -1.74590
C          2.50460       -2.30990       -1.23380
O          1.48180       -2.75930       -2.08820
H          0.80200        0.64450        0.78460
H          2.80180       -0.49280        0.87760
H          2.83940        1.01210       -0.14500
H          2.47930       -0.34900       -2.22760
H          4.69770       -1.10220       -0.44800
H          4.53400       -3.24320       -1.22440
H          3.96760       -2.56720       -2.85540
H          2.43510       -2.68780       -0.18970
H          1.62840       -2.36560       -2.98760
