19
6962	1
C          3.20970        1.26110       -0.21510
C          2.60170       -0.13760       -0.33400
C          3.20680       -1.13380        0.67650
C          2.49130       -2.49080        0.57130
O          2.97100       -3.38340        1.54230
C          4.68680       -1.31760        0.41880
C          5.60280       -1.01570        1.34420
H          2.72160        1.94050       -0.94530
H          4.29810        1.24000       -0.43280
H          3.04970        1.66410        0.80750
H          2.74660       -0.51120       -1.37180
H          1.50920       -0.04850       -0.14600
H          3.03280       -0.73690        1.70270
H          2.59870       -2.92480       -0.45080
H          1.40240       -2.35400        0.74480
H          3.74860       -3.85470        1.14390
H          5.01330       -1.70470       -0.54250
H          5.31060       -0.62680        2.31470
H          6.65670       -1.15860        1.12920
