15
9631	1
C          1.95750       -1.17110       -0.10040
C          3.35610       -0.55580       -0.05610
C          3.46900        0.59600        0.91400
O          2.50250        0.96150        1.56770
C          4.77520        1.31670        1.06550
C          5.35540        1.39100        2.43290
O          5.75160        0.40630        1.51620
H          1.94230       -2.00780       -0.83030
H          1.21110       -0.41130       -0.41660
H          1.67840       -1.56740        0.89930
H          3.61780       -0.19230       -1.07290
H          4.08100       -1.34560        0.23580
H          5.21210        1.87290        0.21020
H          4.80370        0.91040        3.26850
H          6.18960        2.10610        2.58660
