16
10425	1
C          0.90510        0.05730       -0.01110
C          2.41500       -0.08710        0.15900
C          3.03420        1.22760        0.43110
C          3.69590        1.19410        1.60710
C          3.59010       -0.13960        2.24300
C          4.13490       -1.27350        1.48630
N          2.70270       -0.93970        1.34130
H          0.67770        0.71050       -0.88070
H          0.44800        0.49770        0.90160
H          0.45110       -0.94020       -0.19130
H          2.84230       -0.53150       -0.76750
H          2.98720        2.09280       -0.21740
H          4.24240        2.03260        2.01730
H          3.16750       -0.23790        3.26460
H          4.26480       -2.20160        2.08020
H          4.73830       -1.06270        0.57440
