14
10141	2
C          1.00440        1.10650       -0.30900
N         -0.13050        1.41400        0.51050
N         -1.33430        0.77590        0.32350
C         -1.49970       -0.45710       -0.03990
N         -0.47050       -1.45510       -0.13020
C          0.92610       -1.32460        0.13760
C          1.60860       -0.17950        0.10310
H          1.77090        1.90620       -0.21410
H          0.68600        1.05790       -1.37310
H         -0.12170        2.29960        1.03730
H         -2.52150       -0.79570       -0.17810
H         -0.80700       -2.42020       -0.26230
H          1.48190       -2.22860        0.37000
H          2.66720       -0.19600        0.34720
