15
8886	1
C          2.87860        1.15430       -0.20900
N          2.24690       -0.11990        0.14480
C          3.09360       -1.26740       -0.21530
C          2.38240       -2.61520        0.09860
O          3.21240       -3.21940        1.02080
N          4.25480       -2.49190        1.32400
C          4.26940       -1.39640        0.69260
H          2.19020        1.98760        0.04600
H          3.09620        1.19950       -1.29890
H          3.81530        1.30490        0.36660
H          1.35800       -0.18540       -0.40480
H          3.42530       -1.22280       -1.27730
H          2.30600       -3.24740       -0.81170
H          1.37900       -2.46810        0.55340
H          5.06210       -0.66970        0.80690
