15
9826	1
C          1.02720       -0.14440        0.01050
C          2.48850       -0.08050        0.03160
C          3.69280       -0.02730        0.04890
C          5.15650        0.03730        0.07050
C          5.64360        1.07320       -0.94080
C          6.94180        0.80010       -1.59910
O          5.70170        0.56250       -2.24280
H          0.65700        0.18180       -0.98320
H          0.61630        0.52350        0.79540
H          0.69950       -1.18660        0.20330
H          5.56240       -0.97500       -0.14470
H          5.48630        0.34200        1.08530
H          5.29950        2.12910       -0.91720
H          7.43550       -0.18440       -1.45790
H          7.44030        1.63370       -2.13570
