12
9403	1
O          1.89110        1.08360       -0.27920
C          2.31830       -0.21760        0.01500
C          2.83880       -0.89160       -1.21720
C          2.91680       -0.36890       -2.48960
O          3.43200       -1.29260       -3.26280
C          3.67120       -2.35240       -2.52100
N          3.31660       -2.14880       -1.23520
H          1.55870        1.46340        0.57530
H          1.46490       -0.81430        0.40580
H          3.13670       -0.18350        0.76740
H          2.61590        0.61730       -2.81750
H          4.09880       -3.27360       -2.89310
