18
10287	1
N          0.66090       -0.02010       -0.01540
C          2.11710        0.04230        0.14740
C          2.95410       -0.97800       -0.59490
C          2.50920       -1.70480       -1.87490
C          2.96800       -0.80350       -2.98800
C          2.50180        0.53630       -2.48760
C          2.93930        0.56570       -1.01270
H          0.29370       -0.74950        0.63660
H          0.32070       -0.24380       -0.97130
H          2.49180        0.31730        1.15570
H          4.01480       -1.15340       -0.30300
H          1.40810       -1.82620       -1.90940
H          2.95410       -2.71900       -1.95570
H          2.57130       -1.07790       -3.98850
H          4.08190       -0.81000       -3.02350
H          1.40130        0.61830       -2.58490
H          2.94430        1.37080       -3.07160
H          3.99300        0.88640       -0.84560
