14
10541	1
C         -1.16690        0.70800       -0.03790
C         -1.00490       -0.78330       -0.22890
O         -0.28060       -1.31720        0.85600
C          0.43070       -1.05250       -0.32040
C          1.17120        0.28250       -0.26350
C          1.05930        1.13480        0.93240
N          0.14520        1.36140       -0.20310
H         -1.63200        0.94960        0.94360
H         -1.83890        1.08470       -0.83660
H         -1.84840       -1.48580       -0.39030
H          0.82850       -1.98860       -0.76320
H          1.84000        0.55190       -1.10730
H          1.81290        1.94730        0.98870
H          0.54340        0.76470        1.84540
