16
7956	1
N          0.78130       -0.00620       -0.30670
C          2.21760       -0.06570       -0.05770
C          2.73120        1.29300        0.42270
C          4.20360        1.22510        0.70050
N          5.02000        1.97640        0.05370
N          6.36860        1.91540        0.30310
C          7.18600        2.65020       -0.35820
H          0.45990       -0.95160       -0.61480
H          0.59550        0.66210       -1.08860
H          2.74670       -0.36120       -0.99230
H          2.41810       -0.83310        0.72220
H          2.20410        1.58270        1.35660
H          2.52370        2.06180       -0.35470
H          4.57340        0.53250        1.45300
H          8.24940        2.59300       -0.15280
H          6.82580        3.33010       -1.12540
