14
8736	1
O          1.05120       -0.35230       -0.16780
N          2.32220       -0.11010        0.07430
C          2.92520       -0.67000        1.06230
C          2.30650       -1.66310        1.98260
C          3.40460       -1.68480        3.04760
C          4.68040       -1.34210        2.27180
O          4.23020       -0.47830        1.30160
H          0.61040        0.07790       -0.91250
H          2.21520       -2.62470        1.43350
H          1.33910       -1.35730        2.43600
H          3.44080       -2.58220        3.70020
H          3.21560       -0.80040        3.70030
H          5.07830       -2.24990        1.76670
H          5.45820       -0.89400        2.92580
