10
9447	1
O          2.84010       -1.02840        0.00940
C          2.24480        0.03380       -0.07230
C          2.98650        1.30010       -0.07730
C          2.44340        2.56040       -0.16390
C          3.53120        3.40430       -0.12950
O          4.61830        2.67050       -0.03010
N          4.32580        1.40160        0.00370
H          1.16190        0.03890       -0.14140
H          1.39860        2.83110       -0.24150
H          3.51490        4.48480       -0.17510
