20
6980	1
C          3.01860       -1.40510        0.00500
C          2.57670       -0.01510        0.46960
C          3.02360        1.10720       -0.49830
N          2.57750        2.43410       -0.02950
C          1.12410        2.61550       -0.10860
C          4.53530        1.12330       -0.58720
C          5.17470        0.91790       -1.74310
H          2.65120       -2.16950        0.72170
H          4.12540       -1.47790       -0.04020
H          2.59700       -1.62670       -0.99840
H          2.98690        0.17770        1.48520
H          1.47060       -0.04150        0.53880
H          2.58890        0.90510       -1.50540
H          2.99850        3.16150       -0.65580
H          0.59950        1.97440        0.62700
H          0.75090        2.40790       -1.13530
H          0.87270        3.66680        0.14740
H          5.11530        1.30820        0.31270
H          4.62610        0.73070       -2.66100
H          6.25920        0.93650       -1.77210
