11
9237	1
O          2.65040       -0.70270       -1.09540
C          2.45930        0.08810        0.04430
C          2.71470       -0.71190        1.28330
N          2.61240       -0.22860        2.53380
N          2.91590       -1.24220        3.33370
N          3.19570       -2.31310        2.60410
N          3.07620       -2.00410        1.32560
H          3.23880       -2.66090        0.53060
H          2.46680       -0.11350       -1.87250
H          1.41050        0.45670        0.07540
H          3.16630        0.94650        0.02990
