15
6490	1
O          0.95230        0.48480        0.93430
N          2.23550        0.53670        1.21970
C          3.04130       -0.34720        0.75140
C          4.51850       -0.29620        1.05690
C          5.00610        0.70250        2.09550
C          5.83820       -0.47430        2.57570
N          5.03350       -1.44100        1.81730
H          0.35160        1.15650        1.28390
H          2.66590       -1.14060        0.11060
H          5.11690       -0.20540        0.11990
H          4.21700        0.87940        2.85980
H          5.53640        1.61370        1.74660
H          5.86190       -0.62970        3.67720
H          6.85860       -0.44610        2.12610
H          4.28150       -1.77780        2.46660
