15
8875	1
C          1.83320        1.01920        1.12970
O          2.18160        0.03510        0.18160
C          2.84860       -1.03900        0.81660
C          3.69020       -1.83630       -0.22430
N          3.07040       -3.13230       -0.19490
N          2.03580       -3.19370        0.67950
C          1.86150       -2.08440        1.26550
H          1.24240        1.80500        0.61600
H          2.74020        1.50930        1.54730
H          1.18740        0.60350        1.93460
H          3.50410       -0.72230        1.66270
H          4.75260       -1.92170        0.08970
H          3.61400       -1.40610       -1.24630
H          3.37040       -3.93630       -0.76460
H          1.08520       -1.93140        2.00300
