15
9812	1
O          0.78180        0.14500       -0.58590
N          2.03570        0.18920       -0.98080
C          2.86790       -0.71380       -0.60520
C          4.29480       -0.66200       -1.05900
C          4.63360       -1.94900       -1.82560
C          4.45400       -1.92860       -3.27320
N          5.82000       -1.85490       -2.69240
H          0.16000        0.82610       -0.87450
H          2.54130       -1.52300        0.04350
H          4.95160       -0.59130       -0.16690
H          4.45940        0.24450       -1.68410
H          4.56860       -2.94150       -1.33110
H          4.22390       -0.97460       -3.79910
H          4.34610       -2.91070       -3.77880
H          6.14670       -0.86260       -2.75760
