11
8621	1
O          1.94870       -0.52140        0.57660
C          2.27240        0.38150       -0.17670
N          3.06910        1.38480        0.27480
C          4.09360        1.90910       -0.57910
C          2.82650        2.72130       -0.15650
C          2.99850        3.65030        0.96290
N          3.13470        4.38990        1.84250
H          1.92210        0.36730       -1.20680
H          4.09430        1.38620       -1.56120
H          5.02410        1.94200        0.02580
H          1.93680        2.80200       -0.82040
