16
8867	1
F          3.02690        1.14830       -0.20540
C          2.32720       -0.02170        0.03120
C          2.95780       -1.17800       -0.75110
C          2.27010       -2.52790       -0.48590
C          2.97930       -3.13620        0.73090
C          4.33940       -2.55510        0.58470
C          4.32870       -1.45840       -0.23990
H          1.27660        0.12080       -0.29930
H          2.32750       -0.22950        1.12320
H          2.92830       -0.95640       -1.84060
H          2.57620       -3.17590       -1.34170
H          1.15950       -2.53420       -0.47080
H          2.94700       -4.24550        0.67710
H          2.56010       -2.77590        1.69440
H          5.21040       -2.87090        1.14320
H          5.19150       -0.82510       -0.39950
