19
9745	1
N          1.74740       -0.68510        3.44870
C          2.43310       -1.69760        2.65300
C          3.26090       -1.03460        1.54400
C          3.95960       -2.06590        0.65100
N          4.88780       -2.89180        1.45130
C          5.76380       -3.70760        0.57960
C          6.31140       -2.52880        1.25440
H          1.17200       -1.16890        4.17470
H          2.45610       -0.09980        3.94620
H          1.67330       -2.36580        2.19150
H          3.08790       -2.30770        3.31350
H          4.02380       -0.36090        1.99190
H          2.58180       -0.42320        0.91050
H          4.45730       -1.52210       -0.18520
H          3.18920       -2.72560        0.19530
H          5.51810       -3.61760       -0.50220
H          5.95650       -4.68520        1.06830
H          6.45770       -1.60000        0.66160
H          6.87680       -2.72670        2.18820
