16
9762	2
N          4.43820       -1.61310       -0.30720
C          3.39840       -1.29010       -0.98730
N          3.11050        0.07170       -1.29680
N          3.91810        1.12970       -0.87150
C          4.40090        1.83630       -2.06500
C          5.22490        3.03550       -1.61570
C          5.90640        1.87260       -2.31670
H          4.63510       -2.60100       -0.09140
H          2.72430       -2.06700       -1.33730
H          2.26160        0.27760       -1.84530
H          4.70590        0.78510       -0.27600
H          3.63010        2.28060       -2.73180
H          5.69830        3.05920       -0.61050
H          5.36290        3.89300       -2.30830
H          6.35700        1.04370       -1.73080
H          5.99770        1.87800       -3.42360
