10
8305	1
C          1.09380       -0.06240        0.06000
C          2.55690       -0.06240        0.06000
C          3.76230       -0.06240        0.06000
C          5.17390       -0.06240        0.06000
C          6.37920       -0.06240        0.06000
C          7.79100       -0.06240        0.06000
N          8.94820       -0.06240        0.06000
H          0.72380       -0.67610        0.90690
H          0.72380       -0.48900       -0.89500
H          0.72380        0.97800        0.16800
