15
7232	1
C          1.97650       -0.57760       -0.77730
O          1.86550       -0.25870        0.56050
C          2.92020        0.10290        1.34250
O          2.71590        0.40030        2.65230
C          1.47270        0.35470        3.24470
N          4.11070        0.16320        0.84140
N          5.20800        0.52330        1.59110
H          0.97290       -0.83440       -1.17400
H          2.64680       -1.45400       -0.90860
H          2.37400        0.28960       -1.34690
H          1.56840        0.63820        4.31290
H          1.05630       -0.67370        3.18410
H          0.78350        1.06950        2.74580
H          6.13620        0.55690        1.14730
H          5.12390        0.76140        2.59060
