15
9111	1
O          3.76010        0.56560        0.52830
C          2.56460       -0.07820        0.18190
C          2.84070       -1.21200       -0.76000
N          2.56420       -2.41980       -0.48250
N          2.90810       -3.24620       -1.50160
C          3.48810       -2.53970       -2.61210
C          3.45850       -1.06340       -2.12460
H          3.96230        1.20790       -0.20140
H          1.85060        0.63920       -0.28220
H          2.08790       -0.45770        1.11080
H          2.76490       -4.26560       -1.46830
H          2.86380       -2.68200       -3.51990
H          4.52780       -2.89230       -2.78170
H          2.81130       -0.43170       -2.76950
H          4.48210       -0.63990       -2.04250
