16
8681	1
O          1.53900        0.49100        0.72510
C          2.18170       -0.54320        0.81080
C          2.87500       -1.10680       -0.41060
C          4.36030       -1.30790       -0.18810
C          4.36770       -2.54620        0.69870
N          3.25990       -3.39540        0.22680
C          2.45810       -2.55110       -0.67290
H          2.23700       -1.04910        1.76830
H          2.65660       -0.43660       -1.27150
H          4.91520       -0.43540        0.21760
H          4.81600       -1.58710       -1.16640
H          4.16770       -2.23790        1.75010
H          5.34370       -3.07420        0.68470
H          2.68080       -3.68170        1.05030
H          1.36260       -2.72850       -0.59340
H          2.76320       -2.81290       -1.71070
