17
7887	1
N          2.43010       -0.02780        1.47220
C          3.45560        0.19030        0.45900
C          3.24310       -0.75240       -0.69300
C          4.18970       -1.62680       -1.06840
C          3.97710       -2.56730       -2.22540
C          4.09090       -4.02010       -1.77260
F          5.34940       -4.26770       -1.25260
H          2.57480        0.66180        2.24490
H          2.54510       -0.98670        1.87460
H          4.46350        0.06260        0.91510
H          3.37710        1.23080        0.07800
H          2.29730       -0.71150       -1.22660
H          5.13650       -1.66300       -0.53580
H          4.74650       -2.36330       -3.00010
H          2.97510       -2.41650       -2.68430
H          3.92690       -4.69150       -2.64190
H          3.32320       -4.24410       -1.00140
