16
6467	2
N          1.53530        0.65410        1.39220
C          2.48790        0.61500        0.53410
N          3.45920       -0.41680        0.59430
N          4.47130       -0.47820       -0.37010
C          5.51480        0.51830       -0.09100
C          6.60610       -0.53130       -0.19340
C          5.46430       -1.52360       -0.07360
H          0.82630        1.40060        1.35180
H          2.54970        1.37310       -0.24230
H          3.36370       -1.14910        1.31630
H          5.44530        0.89470        0.95930
H          5.58380        1.33010       -0.84660
H          7.39940       -0.54350        0.58440
H          6.97340       -0.54900       -1.24410
H          5.39650       -1.88470        0.98020
H          5.49390       -2.34620       -0.82010
