15
10064	1
C          0.32360        1.43600        0.48390
O          1.13450        0.42020       -0.10240
C          0.23740       -0.33250       -0.91080
C         -0.79850        0.69710       -1.37170
C         -1.11030        1.09860        0.05790
C         -1.43630       -0.24790        0.62690
C         -0.61190       -1.13910        0.01320
H          0.62710        2.42400        0.07080
H          0.42180        1.44990        1.59120
H          0.76280       -0.90740       -1.70170
H         -1.66590        0.25490       -1.91740
H         -0.36040        1.51590       -1.98820
H         -1.85970        1.89010        0.26930
H         -2.23600       -0.49880        1.31080
H         -0.64640       -2.21470        0.12230
