13
6777	1
F          1.10670       -0.06740       -0.05000
C          2.48900       -0.03760        0.01090
C          3.00740       -0.76110       -1.21660
C          3.19460        0.74630       -1.09480
C          4.51950        1.24850       -0.57980
F          5.66400        0.86870       -1.20720
C          4.58890        2.07670        0.46810
H          2.98880       -0.56070        0.85440
H          2.35130       -0.89170       -2.10330
H          4.01940       -1.22050       -1.19250
H          2.44540        1.48380       -1.45540
H          3.68820        2.40300        0.97960
H          5.55260        2.43290        0.81720
