12
10143	1
C          1.01300        1.09770       -0.32020
N         -0.13790        1.42150        0.47740
N         -1.31350        0.70840        0.39150
C         -1.43750       -0.50000       -0.06000
O         -0.40630       -1.33270       -0.39870
N          0.84620       -1.28340        0.03540
C          1.54890       -0.21170        0.11010
H          1.79630        1.87340       -0.17740
H          0.73480        1.07010       -1.39580
H         -0.13060        2.29790        1.01950
H         -2.44180       -0.89540       -0.16220
H          2.56580       -0.27100        0.48460
