13
7846	2
N          2.44190        0.20470        1.13400
N          2.11120       -0.37190       -0.09250
C          2.75050       -0.00650       -1.31330
N          3.67050        0.89440       -1.33740
C          4.31810        1.27010       -2.54280
C          5.25830        2.21470       -2.52720
F          5.88000        2.57620       -3.67970
H          1.58610        0.67780        1.50270
H          3.19080        0.92490        1.02850
H          1.37880       -1.09640       -0.12000
H          2.44610       -0.50320       -2.23200
H          4.05380        0.79300       -3.48380
H          5.53360        2.70130       -1.59640
