11
9398	1
O          2.96770        0.83110       -0.73270
C          2.36350       -0.23740       -0.05790
C          2.74830       -0.22760        1.38880
C          3.56760        0.66030        2.04360
N          3.62010        0.27260        3.32930
O          2.86920       -0.78970        3.42430
N          2.32500       -1.12930        2.28940
H          2.67340        0.76060       -1.67780
H          2.69780       -1.20060       -0.50240
H          1.25700       -0.14840       -0.12660
H          4.08540        1.51650        1.63230
