13
9257	2
C          1.03600       -0.02580        0.07260
N          2.47970       -0.04500        0.07940
C          3.17350        0.95810        0.48420
C          4.54840        1.01850        0.52190
C          4.81430        2.27730        1.02370
N          3.64050        2.89780        1.25800
H          3.50940        3.86090        1.63850
O          2.67670        2.08940        0.92770
H          0.66050       -0.99480       -0.31550
H          0.66700        0.79060       -0.58480
H          0.65010        0.12080        1.10430
H          5.25910        0.25750        0.22740
H          5.78870        2.71080        1.20540
