16
8011	2
N          1.83160        1.31390       -0.41910
C          2.58370        0.07440       -0.26360
C          2.89190       -0.15570        1.19040
C          4.15370       -0.26580        1.63410
N          4.41070       -0.48470        3.02160
C          5.71520       -0.62560        3.59110
N          6.79680       -0.57860        2.89320
H          1.59730        1.43550       -1.43090
H          2.43600        2.11870       -0.13310
H          3.51030        0.12130       -0.87930
H          1.96830       -0.77510       -0.62900
H          2.06340       -0.23480        1.88920
H          4.96350       -0.18530        0.92140
H          3.60820       -0.54640        3.66670
H          5.79760       -0.78250        4.66150
H          6.81600       -0.43700        1.87720
