18
8363	1
C          2.94620       -0.37930       -1.27900
C          2.50060        0.08970        0.10370
C          3.32140       -0.57290        1.22250
O          2.80670       -0.21340        2.48420
C          2.35870       -1.53140        2.71180
C          3.01110       -2.04440        1.44460
N          4.21240       -2.83400        1.73090
H          2.34580        0.13860       -2.05650
H          2.79730       -1.47360       -1.39090
H          4.01880       -0.13980       -1.43950
H          1.41860       -0.13080        0.23670
H          2.64210        1.19010        0.16560
H          4.41020       -0.35030        1.14940
H          1.24770       -1.54950        2.64680
H          2.77440       -1.96250        3.64870
H          2.30810       -2.54030        0.74040
H          4.84280       -2.34640        2.41010
H          4.73840       -2.97170        0.83820
