12
8779	1
F          2.23180        1.48550       -0.26450
C          2.41460        0.13690       -0.01890
C          2.75650       -0.58490       -1.31830
O          2.89910       -1.95270       -1.09750
C          1.99580       -2.61260       -1.82800
C          1.26480       -1.71620       -2.52040
O          1.70580       -0.48940       -2.22770
H          1.48420       -0.28260        0.42020
H          3.24400        0.01140        0.70870
H          3.68760       -0.16870       -1.76060
H          1.87950       -3.68760       -1.85170
H          0.45480       -1.94070       -3.20110
