15
9792	1
C          0.82610        1.49480       -0.03450
C          2.01170        1.68780        0.06730
C          3.45090        1.92260        0.19040
O          4.13220        0.96070       -0.57780
C          5.51060        1.21270       -0.45770
C          6.20370        0.53020       -1.62680
C          6.13820        2.04250       -1.57230
H         -0.21470        1.32550       -0.12410
H          3.71670        1.83120        1.26790
H          3.65510        2.95280       -0.17950
H          6.02890        0.78030        0.42570
H          5.63150        0.26170       -2.54090
H          7.28800        0.29740       -1.56220
H          5.29860        2.57720       -2.06660
H          6.94020        2.61470       -1.05980
