17
10076	1
C          0.09280       -0.74150       -1.07920
N         -0.23150       -1.95430       -0.28580
C          1.09510       -1.33080       -0.19580
C          1.31200       -0.64660        1.15490
C          2.43500        0.39420        1.03350
C          3.24050        0.63680        2.22510
N          3.80020       -0.15280        1.09670
H         -0.52990        0.09590       -0.69930
H          0.11750       -1.00060       -2.16080
H         -0.14480       -2.78820       -0.91300
H          1.89600       -1.95480       -0.65210
H          1.55050       -1.42730        1.91010
H          0.39140       -0.12610        1.49930
H          2.35840        1.23670        0.31380
H          3.14610       -0.02080        3.11850
H          3.79020        1.59970        2.27350
H          3.77260       -1.16500        1.36190
