12
8906	1
N          1.09490       -0.04210       -0.26020
C          2.24420       -0.03660       -0.12430
C          3.70300       -0.02990        0.04820
C          4.22140       -1.33740        0.72210
N          4.79830       -0.84230        1.94200
N          4.68830        0.50460        2.06010
C          4.09930        1.00890        1.05800
H          4.21080        0.16300       -0.92050
H          5.00910       -1.82290        0.10730
H          3.40830       -2.05860        0.95860
H          5.25460       -1.43110        2.65330
H          3.91720        2.07140        0.96230
