17
7509	1
C          1.11570        0.02320        0.45740
O          2.45950       -0.20060        0.09680
C          2.79870        0.64300       -0.98240
C          4.25350        0.39860       -1.36250
O          4.59880        1.21970       -2.41990
C          5.82330        1.26570       -3.01630
C          6.85680        0.50020       -2.63420
H          0.86530       -0.64900        1.30370
H          0.42400       -0.23210       -0.37610
H          0.95980        1.06600        0.81310
H          2.69450        1.71450       -0.69350
H          2.16780        0.41670       -1.87290
H          4.37810       -0.66710       -1.65640
H          4.90050        0.62120       -0.48530
H          5.96820        1.95620       -3.84080
H          6.77390       -0.20820       -1.81760
H          7.80730        0.58470       -3.15080
