16
6951	1
C          2.69930        1.25370       -0.36410
O          3.58960        0.73150       -1.32550
C          3.49810       -0.68280       -1.38100
C          2.55360       -1.10540       -2.51920
O          3.00580       -0.62990       -3.75950
C          4.90240       -1.25540       -1.59070
F          5.71900       -0.89360       -0.53430
H          2.73750        2.36100       -0.41760
H          3.00890        0.96110        0.66320
H          1.64870        0.95510       -0.57420
H          3.12200       -1.12900       -0.42750
H          1.51830       -0.74510       -2.32320
H          2.49420       -2.21370       -2.56600
H          2.70810        0.31440       -3.83020
H          5.34590       -0.86900       -2.53320
H          4.86060       -2.36440       -1.64320
