14
7785	1
F          3.42210        0.88260        0.04760
C          4.20240       -0.22900        0.01960
C          5.51010       -0.13170        0.30530
O          6.35780       -1.19880        0.29880
C          6.00350       -2.50420        0.00410
C          7.18220       -3.44170        0.08790
C          8.41940       -3.04260        0.41080
H          3.74590       -1.17860       -0.23550
H          5.91530        0.84380        0.55420
H          5.59440       -2.55550       -1.02800
H          5.23300       -2.85320        0.72510
H          7.01400       -4.49310       -0.12530
H          8.64400       -2.00480        0.63340
H          9.22470       -3.76870        0.45360
