11
8968	2
O          1.66260       -0.40930        0.86800
N          2.46210        0.23890        0.00930
C          2.99040       -0.43050       -1.11880
C          3.82390        0.11430       -2.06430
C          4.05410       -0.92130       -2.94390
O          3.39300       -1.97860       -2.51980
N          2.74180       -1.71600       -1.42230
H          0.74200       -0.21240        0.55700
H          2.70310        1.22600        0.18250
H          4.21160        1.12330       -2.11020
H          4.66820       -0.89070       -3.83380
