11
10280	1
C          1.66060       -0.06570       -0.64320
O          2.09260        0.67360        0.48260
C          2.83290        1.41570       -0.30110
N          3.68300        2.44020       -0.31090
N          4.00760        2.58530       -1.58620
H          4.66550        3.30900       -1.95090
C          3.34770        1.64690       -2.31810
C          2.57040        0.87450       -1.46030
H          0.57680        0.06170       -0.86060
H          2.00710       -1.12310       -0.63130
H          3.42760        1.53570       -3.39120
