12
8451	1
F          2.30830        0.47830       -1.28450
C          2.14350        0.00280        0.00350
C          3.00050       -1.24470        0.20680
C          2.61660       -2.14890        1.46470
O          2.16610       -3.13650        0.60250
C          2.45840       -2.42990       -0.45590
O          2.31180       -2.73470       -1.62870
H          1.06670       -0.21400        0.17580
H          2.46620        0.78630        0.72020
H          4.08660       -1.13220        0.00130
H          1.77440       -1.75960        2.07980
H          3.49610       -2.50740        2.04450
