18
8325	1
C          1.12320        0.20030        0.15260
N          2.55320       -0.09580        0.22320
C          2.96390       -0.94960       -0.89880
C          4.43470       -1.38350       -0.87290
C          3.97850       -2.74950       -1.39700
C          2.60330       -2.44050       -0.79480
O          1.48850       -2.87160       -1.53390
H          0.83910        0.84830        1.00890
H          0.52100       -0.73340        0.20250
H          0.88860        0.74740       -0.78570
H          2.75650       -0.56810        1.13470
H          2.72590       -0.52860       -1.90510
H          4.76840       -1.51700        0.18400
H          5.17410       -0.80340       -1.46500
H          4.51910       -3.65900       -1.06030
H          3.92450       -2.68860       -2.51020
H          2.57630       -2.77990        0.26690
H          1.58730       -2.53500       -2.46210
