11
8603	1
N          0.93780       -0.05100       -0.24970
C          2.09070       -0.00990       -0.15570
C          3.55360        0.05710       -0.03390
C          4.20930       -0.83590       -1.08810
C          4.29220        0.67920       -1.20650
C          5.53380        1.31580       -0.74480
N          6.51040        1.81900       -0.38030
H          4.04020       -0.18070        0.93790
H          3.61400       -1.19180       -1.95910
H          5.22170       -1.24040       -0.86440
H          3.60970        1.20560       -1.91010
