17
9694	1
C          1.07050        0.12680        0.14910
C          2.55450       -0.13140        0.02380
N          3.17710       -0.94990        0.81040
N          2.56120       -1.64090        1.83160
C          3.33780        0.55640       -1.06720
C          3.21960        2.06900       -0.89120
C          4.55500        1.38740       -0.67350
H          0.84400        0.56120        1.14540
H          0.50820       -0.82110        0.01560
H          0.72360        0.84080       -0.62740
H          3.11880       -2.27730        2.41780
H          1.55650       -1.53970        2.03250
H          3.04600        0.37500       -2.12370
H          2.98580        2.51820        0.09870
H          3.39000        2.73320       -1.76510
H          4.85000        1.07890        0.35260
H          5.25990        1.26600       -1.52330
