13
8050	1
N          2.14150        1.48630        1.84370
C          3.29150        0.73790        1.35050
C          3.03970        0.28300       -0.05490
N          3.05710       -0.96800       -0.34420
O          2.83530       -1.37020       -1.57980
C          2.87020       -2.68180       -1.90850
O          3.11840       -3.53180       -1.06640
H          2.35000        1.81210        2.81510
H          1.31330        0.84890        1.89260
H          3.48810       -0.13220        2.01720
H          4.18700        1.39500        1.35420
H          2.84370        1.02090       -0.82850
H          2.67750       -2.98160       -2.93280
