19
7562	1
C          0.81800        0.24590       -0.03930
C          2.33990        0.26710        0.07030
C          2.97380       -0.85360       -0.76170
C          4.50340       -0.81890       -0.65120
C          5.14220       -1.94500       -1.46850
C          6.60750       -1.88720       -1.37030
C          7.81040       -1.83410       -1.29210
H          0.38660        1.05930        0.57840
H          0.41380       -0.72160        0.32190
H          0.50090        0.39760       -1.09110
H          2.62600        0.14860        1.13640
H          2.71210        1.25240       -0.28050
H          2.67680       -0.73640       -1.82560
H          2.59770       -1.83530       -0.40320
H          4.79910       -0.92370        0.41430
H          4.87490        0.16190       -1.01740
H          4.84970       -1.85530       -2.53460
H          4.79290       -2.92980       -1.09590
H          8.86600       -1.78410       -1.22100
