12
8803	1
C          2.54790       -1.11120        0.55500
C          2.15570        0.00200       -0.07090
C          2.87220        0.51330       -1.28960
O          1.98820        0.64750       -2.35410
C          1.95840        1.94170       -2.69140
N          2.72400        2.61830       -1.95140
O          3.29990        1.81820       -1.08970
H          2.01110       -1.45630        1.43280
H          3.40030       -1.68220        0.19980
H          1.29910        0.55180        0.30840
H          3.73010       -0.13200       -1.58110
H          1.36080        2.36100       -3.48920
