13
10258	1
C          1.29140       -0.60030        0.14780
C          2.53950        0.35660       -0.22480
N          3.10770        0.03350        1.07060
C          3.93220       -0.00820        2.12570
C          3.35030       -0.85130        3.06610
N          2.17580       -1.31300        2.56930
C          2.11370       -0.72570        1.36180
H          1.24980       -1.58420       -0.36500
H          0.33770       -0.09400        0.40680
H          2.29180        1.43950       -0.28210
H          3.18960       -0.02730       -1.04170
H          4.87020        0.52440        2.20580
H          3.75010       -1.10970        4.03740
