16
8898	1
C          3.20850        0.95360        0.91540
N          2.55930        0.21450       -0.16580
N          3.09620        0.60100       -1.39250
C          3.79880       -0.28350       -2.27500
C          4.13420        0.66400       -3.46610
N          3.53560        1.93460       -3.09600
C          2.98020        1.86540       -1.95880
H          2.79020        0.62350        1.88920
H          3.03640        2.04560        0.81260
H          4.29910        0.74630        0.91540
H          1.53310        0.41820       -0.17290
H          3.12630       -1.11100       -2.58670
H          4.71760       -0.67030       -1.78550
H          3.68790        0.29120       -4.41250
H          5.23210        0.79330       -3.57610
H          2.46940        2.69970       -1.49660
