16
9105	1
N          1.04290       -0.45730        0.15440
C          2.46460       -0.14580        0.04940
C          2.88710        0.77260        1.16540
C          3.77960        0.48540        2.06080
C          3.93700        1.61960        2.98470
O          3.03940        2.63110        2.54300
C          2.35850        2.13160        1.39910
H          0.79490       -1.12900       -0.60760
H          0.48520        0.41310       -0.00420
H          2.67500        0.34140       -0.92790
H          3.04390       -1.09450        0.09630
H          4.32500       -0.44820        2.11750
H          4.98170        1.99330        2.94220
H          3.67460        1.30060        4.01540
H          2.57230        2.77450        0.51920
H          1.26750        2.08920        1.59980
