16
6565	1
F          0.71820        0.53560       -1.78100
C          1.66290        0.59570       -0.77210
C          2.18740       -0.82860       -0.54850
C          3.07940        0.23150       -1.16800
C          4.11250        0.92980       -0.27640
C          5.45730        0.29090       -0.48030
C          6.13020       -0.26710        0.53060
H          1.33810        0.92390        0.23830
H          2.05510       -1.59530       -1.34150
H          2.63160       -1.10230        0.43270
H          3.17790        0.28040       -2.27460
H          3.81270        0.89390        0.79570
H          4.17990        1.99800       -0.57250
H          5.89290        0.28360       -1.47550
H          5.72280       -0.27680        1.53700
H          7.09950       -0.72030        0.35050
