12
8830	3
O          1.04890        0.12900        0.13890
N          2.36400        0.16360        0.17410
C          3.01560       -0.52980        1.03740
C          4.50950       -0.55900        1.15880
N          4.61520       -1.48400        2.26620
C          3.33410       -1.89530        2.68150
N          2.40630       -1.36380        1.99480
H          0.56890        0.65460       -0.51480
H          4.92390        0.43590        1.42600
H          4.99240       -0.96830        0.24660
H          5.49930       -1.79800        2.69130
H          3.15190       -2.58630        3.49350
