14
10330	1
C          0.80210       -0.13700       -0.37140
C          2.18840       -0.06750        0.28080
C          3.26830        0.73530       -0.42060
O          3.15170        0.97010       -1.78100
N          3.19640       -0.11390       -2.50870
C          3.29680       -1.15400       -1.80050
C          3.33260       -0.84150       -0.34440
H          0.21650        0.75460       -0.06560
H          0.27820       -1.04510       -0.00790
H          0.82560       -0.16900       -1.47870
H          2.23900       -0.02070        1.38880
H          4.18960        1.11600        0.07180
H          3.34300       -2.14800       -2.22360
H          4.23610       -1.10630        0.24660
