15
7977	2
C          1.00670        0.08710       -0.19260
C          2.49980        0.21250        0.09540
N          2.96880       -0.88680        0.90780
N          4.29500       -0.94500        1.27100
C          4.74970       -1.90740        1.99310
C          6.17070       -1.93720        2.36160
O          6.60570       -2.84850        3.04640
H          0.67360        0.94270       -0.81710
H          0.43190        0.09240        0.75790
H          0.80050       -0.85730       -0.73990
H          2.68830        1.16900        0.62860
H          3.05630        0.22100       -0.86650
H          2.31230       -1.62380        1.21350
H          4.09070       -2.70210        2.33480
H          6.83900       -1.15000        2.02690
