15
7638	1
C          1.31070        2.02530        1.24310
N          2.56490        1.77720        1.38160
N          3.07690        0.54360        1.04850
C          4.48190        0.26430        1.23170
C          4.96390        0.58030        2.65970
C          6.39400        0.25530        2.74880
C          7.56860       -0.01000        2.82040
H          0.92330        3.01090        1.47540
H          0.62380        1.24860        0.91280
H          2.58980       -0.00060        0.31760
H          5.06350        0.85450        0.49610
H          4.65090       -0.81860        1.03350
H          4.40700       -0.03640        3.39900
H          4.81860        1.64890        2.89230
H          8.60780       -0.20090        2.89570
