14
9215	1
C          0.95210        0.19700        0.10280
C          2.43120       -0.17220        0.05780
C          2.84040       -0.90890        1.29730
C          3.34550       -2.18520        1.38050
N          3.57720       -2.44000        2.68380
N          3.22690       -1.35750        3.36700
N          2.77960       -0.42120        2.54570
H          2.44620        0.52230        2.84340
H          0.67570        0.73690       -0.82720
H          0.74040        0.85730        0.97050
H          0.32950       -0.71990        0.18110
H          3.04220        0.75070       -0.03490
H          2.61460       -0.80930       -0.83440
H          3.53200       -2.87660        0.56960
