12
8967	2
N          1.59750        0.24030        0.99120
N          2.54650        0.11130       -0.01600
C          3.17960       -1.13200       -0.26860
C          4.13930       -1.36860       -1.22210
C          4.43510       -2.70650       -1.07520
O          3.69020       -3.19030       -0.10290
N          2.92300       -2.26750        0.40420
H          2.04430       -0.02120        1.89970
H          0.81020       -0.41750        0.79020
H          2.79510        0.93470       -0.58330
H          4.56730       -0.66760       -1.92640
H          5.15220       -3.27800       -1.64890
