15
8616	1
C          1.63660       -0.79030       -1.01200
C          2.25490       -0.08600       -0.06150
C          3.17250        1.04240       -0.41750
C          2.57830        2.26640       -1.25850
N          2.65540        2.23130        0.15190
C          3.50000        3.12900        0.86480
N          3.08850        3.68100        1.94680
H          0.97780       -1.60850       -0.74020
H          1.78550       -0.55610       -2.06220
H          2.09820       -0.33890        0.98300
H          4.25410        0.95150       -0.17430
H          1.50220        2.29840       -1.52850
H          3.27460        3.03260       -1.66430
H          4.49780        3.35330        0.49710
H          2.14630        3.48510        2.31580
