18
10561	1
C          1.13910        0.22390       -0.20750
N          2.60180        0.15940       -0.05030
C          3.24860       -0.72540       -1.05270
C          3.28050        0.73480       -1.22840
C          4.65510        1.33980       -0.91820
C          4.47770        2.85720       -0.94900
C          4.86170        2.17560        0.34370
H          0.67520       -0.57040        0.41340
H          0.77960        0.09790       -1.25500
H          0.77880        1.20500        0.16650
H          2.49450       -1.33360       -1.59970
H          4.10620       -1.22070       -0.54880
H          2.64940        1.10610       -2.06790
H          5.45910        1.17590       -1.66720
H          3.50030        3.33230       -0.71270
H          5.35000        3.50450       -1.18270
H          4.07530        1.88220        1.06960
H          5.93420        2.03350        0.59530
