18
6879	1
C          0.93010        0.05180        0.04860
C          2.46020        0.07340        0.13900
N          2.97230       -1.00060        0.99820
C          3.77980       -0.18170        1.91360
C          4.48650        0.82300        1.00070
C          3.04580        1.29490        0.84640
C          2.82650        0.93920        2.31570
H          0.60430       -0.88370       -0.45300
H          0.57990        0.91590       -0.55450
H          0.44390        0.09360        1.04300
H          2.86590       -0.00090       -0.89860
H          3.60600       -1.63070        0.45110
H          4.33460       -0.77230        2.67330
H          5.02850        0.43280        0.10860
H          5.11710        1.55200        1.56520
H          2.79840        2.28870        0.41660
H          1.81770        0.65550        2.68270
H          3.29790        1.68100        3.00520
