14
9617	1
O          1.03830        0.29900        0.30250
C          2.41910        0.21190        0.53510
C          3.01090       -1.00550       -0.11980
O          2.29350       -1.77230       -0.74730
C          4.50160       -1.24650        0.00840
C          4.93270       -2.38130        0.82530
N          4.97050       -2.49480       -0.64360
H          0.60050       -0.31000        0.95330
H          2.62670        0.19700        1.62920
H          2.90320        1.12030        0.11950
H          5.21120       -0.44060       -0.27330
H          4.15650       -3.05150        1.26040
H          5.96760       -2.32610        1.22160
H          4.19310       -3.13990       -0.91300
