16
7191	1
C          2.09980       -1.18590        0.93090
C          2.97040       -0.33530        0.01110
C          3.42770        0.91960        0.71510
O          2.46340        1.78440        1.15220
C          2.65720        2.97940        1.81440
C          4.75320        1.13980        0.88060
F          5.24020        2.24540        1.50140
H          1.76550       -2.09620        0.39000
H          1.20160       -0.61760        1.25420
H          2.67810       -1.49600        1.82750
H          2.38360       -0.04800       -0.88730
H          3.83130       -0.95430       -0.32530
H          1.66890        3.43540        2.02790
H          3.23340        3.68480        1.17890
H          3.17430        2.80580        2.78190
H          5.47300        0.41620        0.51010
