15
8083	1
C          1.02440       -1.24940       -1.18600
C          2.24530       -0.91550       -0.77090
O          3.29650       -1.01400       -1.61680
C          4.55420       -0.68640       -1.24080
C          5.55890       -0.80160       -2.11460
C          6.94180       -0.45100       -1.73070
C          7.94580       -0.56590       -2.60320
H          0.17910       -1.17160       -0.50990
H          0.86510       -1.60110       -2.20070
H          2.38510       -0.56520        0.24940
H          4.74970       -0.33020       -0.23070
H          5.35290       -1.15840       -3.12090
H          7.15160       -0.09400       -0.72590
H          7.76920       -0.91960       -3.61480
H          8.95570       -0.30400       -2.30460
