8
7338	1
F          0.99910       -0.08710       -0.04700
C          2.35960       -0.07750       -0.05530
C          3.03370        0.76930       -0.84370
C          2.34090        1.68140       -1.71750
N          1.84030        2.46710       -2.41010
C          4.43970        0.76930       -0.84370
N          5.59070        0.76930       -0.84370
H          2.89150       -0.77170        0.59020
