10
9323	1
O          1.03240        0.03670        0.01700
C          2.25230        0.05700        0.03050
C          3.01010       -1.19540        0.11930
C          4.37940       -1.32230        0.14390
C          4.59480       -2.67950        0.23280
N          3.40220       -3.30710        0.25820
O          2.47710       -2.39290        0.18890
H          2.77530        1.00620       -0.02350
H          5.12160       -0.53600        0.10290
H          5.55260       -3.18000        0.27620
