18
8653	1
N          0.96660        0.21300       -0.08290
C          2.39950        0.00740        0.10710
C          2.94200       -1.02610       -0.89040
C          4.40630       -1.30940       -0.75160
C          4.48490       -2.54530       -1.62970
O          3.31480       -3.30690       -1.38830
C          2.41420       -2.44500       -0.71550
H          0.65190        0.96600        0.57070
H          0.45330       -0.65960        0.17840
H          2.59940       -0.31630        1.15330
H          2.92420        0.97240       -0.06560
H          2.74280       -0.68370       -1.93410
H          4.63020       -1.59950        0.30190
H          5.08600       -0.48470       -1.05500
H          5.41000       -3.12180       -1.41790
H          4.47790       -2.24590       -2.70220
H          2.42240       -2.73120        0.36100
H          1.38110       -2.53840       -1.11180
