14
9116	1
O          1.35890        0.71570        0.59240
C          2.30530       -0.07410       -0.07320
C          2.88580       -1.09040        0.86430
N          2.81350       -2.33890        0.66000
O          3.39340       -3.02040        1.61300
C          3.93560       -2.21650        2.59740
C          3.60990       -0.77670        2.12520
H          0.53890        0.16260        0.68020
H          3.11990        0.58210       -0.44410
H          1.84320       -0.56220       -0.96160
H          5.03250       -2.38160        2.65620
H          3.45100       -2.43890        3.57180
H          4.52800       -0.19120        1.90520
H          2.94030       -0.24610        2.83540
