11
10436	1
O          0.98310        0.09790       -0.41800
C          2.14180        0.12380       -0.03720
C          2.99040        1.29000       -0.01490
N          4.12280        0.94550        0.43890
N          4.14970       -0.39530        0.74700
C          4.32940       -1.37460       -0.24190
C          2.91850       -1.05320        0.48700
H          2.74030        2.29590       -0.32310
H          4.97550       -2.18220        0.15860
H          4.52080       -0.91480       -1.23620
H          2.60050       -1.52820        1.43820
