15
10356	1
F          1.02570       -0.03760        0.07620
C          2.40650       -0.10630       -0.04090
C          2.84160       -1.53410       -0.26160
C          2.44590       -1.73450       -1.70130
C          2.94060       -0.44720       -2.37940
N          1.99420        0.67930       -2.48690
C          2.89070        0.61460       -1.31410
H          2.84990        0.32240        0.88240
H          2.39840       -2.26580        0.44690
H          3.95270       -1.58640       -0.18810
H          1.33820       -1.81300       -1.77910
H          2.89010       -2.65180       -2.14170
H          3.93980       -0.37300       -2.86350
H          1.03060        0.36450       -2.23750
H          3.85540        1.16810       -1.35000
