13
8192	1
C          0.87360        0.05150        0.14130
C          2.33620        0.04020        0.10980
C          3.54140        0.03090        0.08390
C          4.97910        0.02010        0.05390
N          5.59300       -0.36100       -1.00650
N          6.96510       -0.37630       -1.04910
C          7.57870       -0.75730       -2.10950
H          0.49840       -0.98370        0.27720
H          0.48610        0.46270       -0.81350
H          0.52660        0.68410        0.98410
H          5.53510        0.33580        0.93240
H          8.66280       -0.76520       -2.13120
H          7.02400       -1.07330       -2.98880
