12
7620	2
O          3.15280        1.33770       -2.89300
C          2.35920        1.83780       -2.10950
N          2.70000        2.05640       -0.81120
N          3.94430        1.68280       -0.29340
C          4.87380        2.81580       -0.38640
C          6.17360        2.44870        0.19350
N          7.19630        2.15970        0.64950
H          1.36750        2.10880       -2.45970
H          1.99760        2.46700       -0.17750
H          4.32610        0.86370       -0.81760
H          4.47520        3.68690        0.17970
H          5.02910        3.10350       -1.44430
