15
9701	1
C          0.87630        0.13490       -0.11810
C          2.37020        0.03960        0.04210
N          3.04650       -0.83380       -0.62590
O          2.45820       -1.66760       -1.45850
C          3.05550        1.00250        0.99650
C          3.60860        0.44970        2.23310
N          4.52070        0.80290        1.13010
H          0.40520       -0.82780        0.17200
H          0.62460        0.36370       -1.17500
H          0.45960        0.93840        0.52570
H          2.98460       -2.31300       -1.94870
H          2.87840        2.09320        0.88940
H          3.57280       -0.65300        2.38750
H          3.74020        1.16800        3.06860
H          4.86220       -0.09990        0.72960
