15
10371	1
O          1.45960        0.29590        0.66730
C          2.49490        0.04020        0.07410
C          2.97640       -1.34350       -0.10780
C          4.07210       -1.14390       -1.13060
C          4.64550        0.26470       -0.89190
C          3.94650        1.34950       -1.70990
C          3.46360        1.10740       -0.31360
H          2.21750       -2.06010       -0.48920
H          3.38100       -1.67820        0.87200
H          3.60480       -1.16430       -2.14130
H          4.82950       -1.95540       -1.11160
H          5.38260        0.35680       -0.06300
H          3.24010        1.01790       -2.50040
H          4.55700        2.27040       -1.81570
H          3.84220        1.80690        0.46540
