17
8361	1
C          0.91860        0.03970        0.23560
C          2.43340       -0.08880        0.08150
C          3.26540        0.92580        0.83450
O          3.96790       -0.08280        1.52970
C          3.11200       -1.07420        1.01020
C          3.88000       -2.19470        0.30150
O          2.99060       -3.06300       -0.34590
H          0.56440        0.93250       -0.32070
H          0.62860        0.14370        1.30340
H          0.42730       -0.86330       -0.18330
H          2.79870       -0.17710       -0.96650
H          2.68300        1.52880        1.56760
H          3.93200        1.51620        0.16860
H          2.44720       -1.44340        1.82510
H          4.50250       -2.75580        1.03440
H          4.57540       -1.76950       -0.45360
H          2.58640       -3.63310        0.35930
