17
9790	1
C          0.93640        0.05570       -0.01760
C          2.14000        0.01160        0.03630
C          3.60470       -0.04270        0.10220
C          4.22010        1.10270       -0.70090
C          5.75120        1.04800       -0.60070
C          6.53290        0.41870       -1.73890
C          6.41480        1.94380       -1.62680
H         -0.12010        0.09450       -0.06510
H          3.94450       -1.01780       -0.30800
H          3.91640        0.02760        1.16640
H          3.87420        2.07540       -0.28700
H          3.87930        1.03390       -1.75900
H          6.24640        1.20990        0.38130
H          5.80740       -0.14570       -2.36340
H          7.37720       -0.10710       -1.24420
H          5.88550        2.24180       -2.55730
H          7.45610        2.28860       -1.45320
