17
9104	1
C          1.17250       -0.50330        0.59280
C          2.52500        0.02980        0.13060
C          2.91350        1.27320        0.88810
C          3.97290        1.38640        1.62690
C          4.03370        2.73920        2.20210
O          2.88970        3.43620        1.72330
C          2.15870        2.54290        0.89310
H          0.92020       -1.42080        0.02060
H          0.37410        0.24840        0.41810
H          1.20860       -0.75580        1.67410
H          2.47750        0.26680       -0.95350
H          3.28730       -0.76620        0.28070
H          4.70140        0.60270        1.79260
H          4.95940        3.24840        1.86050
H          4.00540        2.67570        3.31030
H          2.09770        2.94780       -0.13920
H          1.14390        2.38470        1.31430
