10
9399	1
F          2.94740        1.15270       -0.36700
C          2.25860        0.00640       -0.01210
C          2.65170       -0.44590        1.35700
C          3.55810        0.13490        2.20900
N          3.58570       -0.61470        3.32420
O          2.73710       -1.58720        3.13480
N          2.15180       -1.53010        1.97140
H          2.48730       -0.79490       -0.74510
H          1.16930        0.21770       -0.03220
H          4.15120        1.02450        2.04370
