15
10140	1
C          1.09220        1.20940       -0.04710
N         -0.27810        1.31820        0.40830
N         -1.31000        0.75650       -0.30800
C         -1.44210       -0.52210       -0.37280
C         -0.52350       -1.41670        0.40750
C          0.89030       -1.34320       -0.09640
C          1.59220       -0.20500       -0.26520
H          1.75900        1.72520        0.67630
H          1.17430        1.73160       -1.02380
H         -0.49370        1.91540        1.21990
H         -2.26950       -0.94880       -0.93000
H         -0.86970       -2.46990        0.33960
H         -0.55770       -1.11320        1.47610
H          1.37750       -2.28060       -0.35000
H          2.60900       -0.30030       -0.63500
