15
9865	1
C          1.36170       -0.61070       -0.42740
C          2.60780       -0.37770       -0.00840
C          3.09920        1.00270        0.18040
C          4.34750        1.23340        0.60330
C          4.83200        2.63960        0.79150
C          5.18940        3.04190        2.17590
O          6.16020        2.60950        1.25940
H          1.01680       -1.63100       -0.56050
H          0.68100        0.20870       -0.63890
H          3.26430       -1.21950        0.19500
H          2.43730        1.84080       -0.02610
H          5.01560        0.40070        0.81280
H          4.79490        3.36870       -0.04490
H          5.08810        2.28860        2.98570
H          5.32000        4.12730        2.36550
