13
9340	1
C          1.01440        0.01430       -0.09240
C          2.21920       -0.02440       -0.09170
C          3.65950       -0.07190       -0.09070
C          4.43270        1.00780       -0.08740
C          5.74980        0.63080       -0.08740
C          5.82810       -0.74110       -0.09090
C          4.46080       -1.34280       -0.09340
H         -0.04330        0.04820       -0.09310
H          4.07360        2.02940       -0.08500
H          6.60090        1.29880       -0.08510
H          6.75580       -1.29770       -0.09170
H          4.27880       -1.94690        0.82030
H          4.28010       -1.94220       -1.01060
