16
8112	1
N          2.61280       -0.58050       -1.58390
C          2.88700       -0.37380       -0.16660
C          2.89960        1.10040        0.13970
C          3.98910        1.70940        0.63820
C          3.99900        3.18330        0.94530
C          4.29020        3.39040        2.36730
C          4.53020        3.54770        3.53880
H          2.58030       -1.60890       -1.77160
H          3.40080       -0.17980       -2.14360
H          3.85180       -0.86200        0.09950
H          2.08220       -0.84950        0.43470
H          1.99660        1.67290       -0.05320
H          4.89370        1.13580        0.82540
H          3.02540        3.66210        0.70680
H          4.79000        3.67480        0.34160
H          4.74080        3.69010        4.56670
