17
8672	1
C          3.37980        0.21260       -1.01400
C          2.52540       -0.14590        0.20000
C          3.23070       -1.15110        1.11860
O          2.41430       -1.40630        2.24780
C          2.48240       -2.78630        2.39560
C          2.62800       -3.27640        0.99620
O          3.49390       -2.35540        0.41700
H          2.83880        0.94990       -1.64390
H          3.58620       -0.69010       -1.62710
H          4.34250        0.66120       -0.68860
H          1.55840       -0.57160       -0.14590
H          2.31630        0.78310        0.77360
H          4.19570       -0.72830        1.47600
H          1.57920       -3.21080        2.88250
H          3.38950       -3.03090        2.99450
H          1.65310       -3.22400        0.46020
H          3.02330       -4.31370        0.96840
