13
9170	1
O          2.85980        1.06320       -0.30850
C          2.26430        0.02470       -0.07250
C          2.99010       -1.25510       -0.05020
C          2.43490       -2.41610        0.19320
C          3.46120       -3.48690        0.13490
C          4.73320       -2.66920       -0.19880
O          4.30310       -1.35940       -0.27910
H          1.19640        0.05080        0.12070
H          1.38390       -2.56780        0.40500
H          3.21220       -4.21030       -0.67070
H          3.54180       -3.99180        1.12110
H          5.16390       -2.98220       -1.17390
H          5.49180       -2.76550        0.60720
