14
7971	2
C          2.02460        0.72190       -0.84570
O          3.05430        0.90470        0.04450
N          3.66760       -0.13130        0.57840
C          4.62990        0.04100        1.41040
N          5.28390       -1.07800        1.97970
N          6.31460       -0.88680        2.87080
C          6.92890       -1.88140        3.40550
H          1.64650        1.71120       -1.17590
H          1.19750        0.16230       -0.35930
H          2.38520        0.15810       -1.73220
H          4.94520        1.04620        1.68000
H          4.98220       -2.03140        1.72160
H          7.73780       -1.70090        4.10470
H          6.65030       -2.90420        3.16760
