15
7519	1
C          1.36980       -0.29380        1.17840
C          2.77230        0.20750        0.86920
O          3.10050       -0.13810       -0.46010
C          4.37960        0.36240       -0.78710
O          4.30070        1.71290       -1.08500
C          5.00490        2.68640       -0.45120
O          5.77510        2.42250        0.46020
H          1.09760       -0.03050        2.22240
H          1.32590       -1.39760        1.06240
H          0.63730        0.17380        0.48650
H          3.47270       -0.27640        1.58720
H          2.77420        1.31260        1.00760
H          4.72770       -0.16970       -1.69630
H          5.13400        0.12240       -0.00120
H          4.87790        3.71830       -0.75870
