11
9031	1
O          1.67400       -0.68000       -0.99900
C          2.10600        0.06370       -0.13130
C          2.81030       -0.48070        1.08050
C          4.25650       -0.06320        1.11360
N          5.02750       -1.07750        1.08280
N          4.30290       -2.22730        1.03200
C          3.05530       -1.96940        1.02930
H          1.97430        1.13590       -0.23380
H          2.27450       -0.18550        2.00700
H          4.62130        0.95420        1.16220
H          2.29370       -2.73710        0.99500
