18
9809	1
C          0.62950        1.20410       -0.22550
C          2.09940        1.43180       -0.41810
C          2.86930        0.53900       -1.05950
C          4.34210        0.76900       -1.25550
C          4.65980        0.76620       -2.75840
C          4.64610        2.05410       -3.44320
N          5.93970        1.39760       -3.11980
H          0.06640        2.03030       -0.70700
H          0.40030        1.19460        0.86020
H          0.29450        0.24140       -0.66790
H          2.53570        2.34590       -0.02520
H          2.43010       -0.37440       -1.45240
H          4.89850       -0.06040       -0.77090
H          4.66110        1.72070       -0.77360
H          4.45700       -0.12990       -3.38270
H          4.55650        3.00000       -2.86280
H          4.51510        2.03460       -4.54510
H          6.35290        1.88590       -2.29120
