10
7361	1
O          0.88860       -0.01580        0.08760
N          2.23610        0.01660        0.05750
C          2.85260       -0.80430        0.81940
C          2.09370       -1.71120        1.66090
C          1.48070       -2.46980        2.36490
C          4.27980       -0.76520        0.78310
C          5.48210       -0.73460        0.75470
H          0.57670        0.65060       -0.53080
H          0.94530       -3.14280        2.98950
H          6.54470       -0.71740        0.73870
