15
8902	1
O          0.92530        0.37440        0.10110
C          2.04770       -0.08130       -0.06110
C          2.88530       -0.54730        1.10530
C          3.19910       -2.04930        1.02770
C          2.05110       -2.76020        1.75600
C          1.66850       -1.72750        2.75420
C          2.13170       -0.48780        2.39180
H          2.45420       -0.14790       -1.06490
H          3.83530        0.02930        1.12810
H          4.08470       -2.19160        1.69230
H          3.48640       -2.45460        0.03400
H          2.41140       -3.71350        2.19850
H          1.17320       -2.93600        1.09820
H          1.01050       -1.89410        3.59660
H          1.87810        0.42120        2.92130
