15
10296	1
O          0.74580        0.05780        0.05320
C          2.12020        0.09450        0.31710
C          2.95640       -0.90830       -0.44530
C          2.41380       -1.57770       -1.70310
O          2.64550       -0.72710       -2.78760
C          2.40100        0.54760       -2.26840
C          2.94660        0.60090       -0.84450
H          0.41530       -0.76740        0.49270
H          2.46530        0.43350        1.31630
H          4.02170       -1.11110       -0.18820
H          1.32480       -1.79260       -1.62200
H          2.94230       -2.54140       -1.85780
H          1.30960        0.76300       -2.30240
H          2.91910        1.31260       -2.88360
H          4.01550        0.89750       -0.73790
