19
6947	1
C          1.58180       -0.21580       -0.65160
O          2.63140       -1.05890       -0.23180
C          2.87700       -0.91390        1.15930
C          2.52650       -2.23020        1.87040
N          1.11270       -2.54990        1.69780
C          4.35920       -0.57090        1.37570
N          4.69230        0.70910        0.75640
H          1.41780       -0.37490       -1.73690
H          1.84880        0.85500       -0.51170
H          0.63010       -0.46990       -0.13540
H          2.28130       -0.09670        1.63880
H          2.75470       -2.14740        2.95690
H          3.13890       -3.05560        1.44470
H          0.53560       -1.81390        2.16640
H          0.91700       -3.45850        2.17670
H          5.00580       -1.37210        0.95190
H          4.56100       -0.49900        2.46740
H          4.60080        0.62680       -0.28210
H          5.69360        0.92630        0.96530
