13
9037	1
C          2.51180       -1.28820        0.28250
C          2.13070       -0.04440       -0.03290
N          2.89200        0.79490       -0.92300
C          2.55910        2.04720       -1.27420
C          3.52340        2.52300       -2.13310
N          4.45760        1.56820       -2.31790
C          4.04770        0.52390       -1.56770
H          1.90370       -1.88110        0.95810
H          3.41660       -1.72780       -0.11810
H          1.21270        0.34280        0.40060
H          1.67940        2.57720       -0.93150
H          3.54730        3.50040       -2.59590
H          4.59110       -0.40830       -1.50280
