13
8106	1
C          0.85310        0.18710        0.20740
C          2.18330        0.19680        0.13660
O          2.92040        0.04240        1.26050
C          4.27320        0.04550        1.23820
C          4.95490       -0.11080        2.37620
C          6.36090       -0.11080        2.37620
C          7.55100       -0.11080        2.37620
H          0.25900        0.31070       -0.69230
H          0.35370        0.05600        1.16250
H          2.66550        0.32940       -0.82930
H          4.80640        0.17470        0.29700
H          4.42500       -0.23970        3.31500
H          8.60930       -0.11080        2.37600
