14
7247	1
C          1.06540       -0.19740       -0.04940
C          2.56380       -0.05390       -0.11210
C          3.21160        0.97880       -0.69850
C          2.49280        2.13190       -1.35970
O          1.73020        2.82290       -0.40910
C          4.61760        0.97880       -0.69850
N          5.76860        0.97880       -0.69850
H          0.75070       -0.23970        1.01390
H          0.77510       -1.14670       -0.54530
H          0.51170        0.62440       -0.54250
H          3.14810       -0.84880        0.34690
H          1.84330        1.73780       -2.17300
H          3.23260        2.83530       -1.80520
H          1.23790        3.52520       -0.90840
