12
9140	1
O          3.23350       -0.66480        0.58420
C          2.17470        0.19610        0.26050
C          2.65910        1.38830       -0.51130
N          3.86210        1.58650       -0.84580
O          3.93500        2.71500       -1.50520
C          2.67680        3.29500       -1.60600
O          1.86940        2.38300       -0.93540
H          3.42520       -1.19950       -0.23040
H          1.70160        0.54410        1.20200
H          1.39710       -0.34650       -0.32290
H          2.36980        3.38330       -2.66940
H          2.65860        4.28260       -1.09860
