16
7482	2
F          1.89330       -1.18090       -0.80220
C          1.90270        0.16850       -0.49600
C          2.87460        0.91900       -1.40540
C          4.31370        0.40210       -1.24020
N          5.22930        1.10290       -2.12230
C          5.59330        2.47730       -1.97420
N          5.22830        3.18440       -0.96210
H          2.19140        0.30250        0.56830
H          0.87800        0.57210       -0.63800
H          2.80990        1.99830       -1.16300
H          2.55720        0.78640       -2.46260
H          4.31810       -0.67560       -1.51490
H          4.66330        0.48270       -0.18830
H          5.66030        0.57370       -2.89490
H          6.23150        2.93220       -2.72430
H          4.65220        2.81050       -0.19710
