14
7530	1
F          2.67860        0.41620       -1.29120
C          2.25460       -0.10490       -0.08160
C          2.77090        0.74600        1.07630
N          4.23940        0.75340        1.11240
C          4.71080        1.59260        2.21970
C          6.17690        1.60950        2.25960
N          7.33340        1.62760        2.29750
H          2.61520       -1.15050        0.01660
H          1.14380       -0.10790       -0.06700
H          2.37620        0.31830        2.02450
H          2.38070        1.78200        0.95900
H          4.59960        1.15390        0.21380
H          4.34240        1.19180        3.18860
H          4.35140        2.63800        2.09610
