15
10056	1
C         -1.19820       -0.70430       -0.48490
O         -1.16140        0.70700       -0.54930
C         -0.05870        1.05120        0.27900
C          1.21540        0.70900       -0.47770
O          1.17880       -0.70170       -0.55260
C          0.07470       -1.05200        0.27130
C          0.00720       -0.00440        1.34010
H         -1.20520       -1.16850       -1.49420
H         -2.09940       -1.01900        0.08810
H         -0.12290        2.09960        0.63940
H          2.11570        1.01950        0.09910
H          1.22420        1.18080       -1.48350
H          0.13830       -2.10310        0.62400
H          0.91690        0.04070        1.98250
H         -0.90360       -0.05420        1.98060
