15
8809	1
C          1.09610       -0.00130       -0.12630
C          2.29820       -0.00080       -0.02960
C          3.77470        0.00010        0.09180
C          4.32680       -1.22050       -0.67150
C          4.41680       -0.68590       -2.05660
C          4.41600        0.68490       -2.05720
C          4.32530        1.22070       -0.67260
H          0.04130       -0.00180       -0.21080
H          3.99580        0.00070        1.18000
H          3.67170       -2.11190       -0.55620
H          5.36290       -1.47070       -0.35670
H          4.58750       -1.28220       -2.94300
H          4.58590        1.28050       -2.94410
H          3.66910        2.11150       -0.55810
H          5.36110        1.47230       -0.35800
