17
7691	2
C          0.72230        0.30090        0.11710
N          1.81330       -0.26510       -0.64420
C          2.99240       -0.42700       -0.15090
N          4.04980       -0.96740       -0.93770
C          3.87780       -1.43420       -2.30310
C          3.10610       -2.76070       -2.38000
O          1.78820       -2.64020       -1.92290
H          0.35700        1.21520       -0.39430
H          1.02600        0.56890        1.15300
H         -0.10580       -0.43580        0.16890
H          3.20760       -0.11620        0.86850
H          4.99840       -0.97060       -0.53420
H          4.88520       -1.63550       -2.72890
H          3.40020       -0.64640       -2.92470
H          3.62680       -3.52820       -1.76890
H          3.10530       -3.13430       -3.42960
H          1.27320       -2.20690       -2.65290
