13
8829	3
N          1.06410        0.04370       -0.01490
N          2.43890        0.08230        0.03740
C          3.07840        0.19790        1.15050
C          4.57240        0.24410        1.26980
N          4.66940        0.37350        2.70730
C          3.38450        0.39400        3.28220
N          2.46180        0.29530        2.41420
H          0.59330       -0.05270       -0.92530
H          0.49120        0.10830        0.83990
H          5.00270        1.13020        0.75730
H          5.04580       -0.69710        0.91910
H          5.55060        0.44070        3.23630
H          3.19560        0.48340        4.34350
