18
9536	1
C          1.25570       -0.64600        0.15420
N          2.65070       -0.67100        0.60550
C          3.06170        0.58130        1.26750
C          2.36190        0.76230        2.62250
C          4.57920        0.53600        1.51040
C          5.44290        1.09070        0.44230
O          5.14510        1.81120        1.62600
H          1.04360       -1.56740       -0.42870
H          1.06340        0.23290       -0.49960
H          0.55840       -0.64150        1.01590
H          3.23880       -0.79430       -0.25300
H          2.81100        1.45330        0.61880
H          2.57740       -0.10010        3.28960
H          1.26460        0.86030        2.50290
H          2.71980        1.69280        3.11330
H          5.04560       -0.20120        2.19840
H          4.98400        1.64000       -0.40670
H          6.52470        0.84470        0.46550
