15
10398	1
N          1.48460        0.42770        0.46040
C          2.53250       -0.00310       -0.14290
C          2.86720       -1.43210       -0.29400
C          4.12740       -1.31160       -1.16300
C          4.70170        0.11680       -0.97280
C          3.88700        1.28290       -1.75860
N          3.60150        0.83920       -0.46930
H          0.75580       -0.22490        0.78490
H          2.09480       -2.05910       -0.78890
H          3.10420       -1.81360        0.72240
H          3.79000       -1.34680       -2.22350
H          4.85070       -2.14270       -1.02870
H          5.47960        0.29480       -0.20080
H          3.09840        0.97850       -2.48170
H          4.25790        2.32720       -1.70960
