17
7532	2
C          1.15350        0.49550        0.95770
C          2.60190        0.42470        0.48280
C          2.73210       -0.41500       -0.79090
N          4.13190       -0.46000       -1.21910
N          4.22240       -1.21210       -2.38580
C          4.71310       -0.65330       -3.51450
O          4.79980       -1.31220       -4.53830
H          1.09670        1.10750        1.88260
H          0.77000       -0.52280        1.18160
H          0.51350        0.96460        0.18040
H          3.22080       -0.02610        1.28880
H          2.96920        1.45520        0.28500
H          2.11430        0.04400       -1.59510
H          2.36070       -1.44680       -0.59560
H          4.70760       -0.93920       -0.48800
H          3.92460       -2.20140       -2.38780
H          5.03320        0.38430       -3.51610
