17
6757	1
C          1.02360       -0.16770       -0.14350
C          2.55170       -0.16080       -0.08260
C          3.31880       -0.58750       -1.31620
C          3.15580        0.90950       -0.97740
C          4.49980        1.47280       -0.58540
N          5.58860        1.40880       -1.49170
N          4.65920        2.03630        0.55940
H          0.64990       -1.13450        0.25210
H          0.63810       -0.03470       -1.17780
H          0.62830        0.65340        0.49030
H          3.06570       -0.22310        0.90140
H          2.59510       -1.06470       -2.01140
H          4.18240       -1.16930       -0.92630
H          2.64630        1.33780       -1.86710
H          5.47100        0.97550       -2.41900
H          6.50590        1.79990       -1.23190
H          3.88290        2.11030        1.23360
