13
6628	1
O          1.09490       -0.58270        0.34820
N          2.40890       -0.60760        0.40370
C          3.04410        0.22620        1.14630
C          4.54420        0.19070        1.21840
C          5.10940        0.42140       -0.18180
C          5.29540        1.47430        0.89420
F          6.49520        1.44230        1.58320
H          0.62280       -1.21240       -0.21280
H          2.49920        0.95370        1.74220
H          5.04100       -0.73850        1.57090
H          4.52580        0.95310       -0.96450
H          6.13410        0.06170       -0.41700
H          4.59120        2.31420        1.07900
