14
7872	1
C          0.88610        0.04630        0.02020
C          2.34900        0.05010        0.02910
C          3.55470        0.05290        0.03670
C          5.01950        0.05750        0.04550
C          5.52590       -1.17090        0.73510
N          6.27540       -2.00350        0.10750
O          6.72320       -3.08270        0.71190
H          0.51040        0.91880        0.59320
H          0.51580       -0.88970        0.48690
H          0.52230        0.10670       -1.02620
H          5.37850        0.95620        0.58850
H          5.38610        0.10310       -1.00260
H          5.25720       -1.35200        1.77340
H          7.28710       -3.70550        0.23400
