14
9780	1
N          1.02900       -0.19600       -0.10670
C          2.17770       -0.06180       -0.15120
C          3.63380        0.10840       -0.20740
C          4.32320       -1.24280       -0.39950
C          5.84290       -1.06420       -0.42950
C          6.60760       -2.00600       -1.27880
O          6.31240       -0.68240       -1.69160
H          3.97390        0.57790        0.74050
H          3.88130        0.78540       -1.05270
H          3.95870       -1.71330       -1.34080
H          4.06920       -1.91400        0.44950
H          6.39480       -0.56650        0.39570
H          6.06860       -2.69430       -1.96340
H          7.70530       -2.07010       -1.12920
