15
9706	1
C          1.11040        0.01680        0.32370
C          2.58730       -0.08970        0.03050
N          3.13420       -1.19550       -0.36210
N          2.43370       -2.36940       -0.53830
C          3.45330        1.12830        0.17890
C          3.48510        1.79150        1.51090
O          4.45890        0.85820        1.12900
H          0.83660       -0.67390        1.14870
H          0.52440       -0.23280       -0.58570
H          0.84070        1.04900        0.63170
H          2.93330       -3.21240       -0.85370
H          1.42140       -2.43380       -0.36190
H          3.95240        1.56990       -0.70870
H          2.87150        1.36280        2.33130
H          3.94160        2.80170        1.55730
