19
8332	1
C          0.90260       -0.03480        0.21630
C          2.42990       -0.07650        0.12000
N          3.13470        1.02900        0.78540
C          4.06700        0.02430        1.31770
C          3.12140       -1.11780        0.98350
C          3.71240       -2.34690        0.28820
N          2.64400       -3.23410       -0.15840
H          0.51960        0.84510       -0.34160
H          0.57010        0.03730        1.27370
H          0.47740       -0.95720       -0.23160
H          2.77920       -0.12040       -0.93900
H          2.55820        1.36150        1.59620
H          4.31750        0.13220        2.39640
H          4.97150        0.02020        0.66560
H          2.51030       -1.34080        1.88820
H          4.37450       -2.88640        1.00060
H          4.32000       -2.03480       -0.58940
H          2.11780       -3.58240        0.67600
H          3.07550       -4.06170       -0.62920
