9
9429	1
F          1.25070        0.58620       -0.59120
C          2.34510       -0.03850       -0.02340
C          2.73880       -1.21200       -0.85470
N          3.11580       -1.14750       -2.14210
N          3.37570       -2.39700       -2.49050
O          3.16380       -3.16560       -1.46100
N          2.76930       -2.48470       -0.42500
H          2.08360       -0.36760        1.00430
H          3.19070        0.67820        0.03080
