12
6854	1
O          1.63820        0.16360        1.01080
C          2.51480        0.08410        0.16550
N          3.05670       -1.06180       -0.21950
C          4.05550       -0.82710       -1.22970
C          5.22910        0.05010       -0.81960
C          3.99710        0.73780       -1.38030
O          3.03150        1.13740       -0.46130
H          2.79230       -1.98900        0.14380
H          3.87680       -1.25290       -2.24120
H          6.07800       -0.00920       -1.53170
H          5.36680        0.14170        0.27940
H          3.82370        0.96520       -2.45480
