17
8437	1
C          3.41130        0.38550       -1.14700
C          2.48430       -0.01370       -0.00140
C          3.16720       -0.98150        0.97740
C          2.21010       -1.63460        2.02200
C          2.44120       -3.05450        1.41610
C          3.30560       -2.34560        0.48080
O          3.98020       -2.78280       -0.43820
H          2.89030        1.10690       -1.81100
H          3.69660       -0.50140       -1.74980
H          4.32940        0.86770       -0.74890
H          1.55910       -0.46820       -0.42010
H          2.20060        0.90460        0.55620
H          4.12600       -0.61270        1.40320
H          1.14850       -1.32090        1.90480
H          2.61240       -1.55600        3.05620
H          1.57580       -3.49050        0.87290
H          3.04670       -3.74600        2.04020
