18
7431	1
C          1.25530        0.53110        1.87930
C          2.56070       -0.03860        1.34540
O          3.47400       -0.16950        2.41280
C          4.68960       -0.70170        1.92960
C          5.68680       -0.83360        3.08360
C          6.01610        0.51470        3.72670
F          6.58760        1.36680        2.79840
H          0.52510        0.64050        1.04980
H          1.43370        1.52790        2.33580
H          0.82890       -0.14920        2.64700
H          2.94930        0.66620        0.57520
H          2.33800       -1.03050        0.88970
H          5.13550       -0.04090        1.15090
H          4.52750       -1.72160        1.51190
H          6.62650       -1.28720        2.70020
H          5.26180       -1.51030        3.85660
H          6.73580        0.35950        4.55790
H          5.09890        0.98440        4.14080
