17
9658	1
C          2.79540        0.28340        1.13840
C          2.21000       -0.23420        0.05110
C          2.96610       -0.67250       -1.16030
C          2.27770       -1.08520       -2.23580
C          4.48320       -0.63190       -1.22450
C          5.06800       -1.53520       -0.13650
C          5.24320       -1.90640       -1.59140
H          2.18520        0.58770        1.98260
H          3.86820        0.41890        1.20380
H          1.12680       -0.32480        0.05180
H          1.19190       -1.11410       -2.22560
H          2.79160       -1.39390       -3.14110
H          4.99400        0.34580       -1.09270
H          4.47490       -2.37350        0.28960
H          6.10060       -1.34990        0.22820
H          4.53040       -2.62770       -2.04420
H          6.13610       -1.55410       -2.15020
