14
9621	2
O          0.71670        0.36540        0.33380
N          2.00290       -0.00580        0.24970
C          3.05040        0.88280        0.62790
N          2.78980        2.07240        1.04460
C          4.48600        0.43580        0.51840
C          5.33870        0.55090        1.70550
N          4.74360       -0.75170        1.36960
H          0.49400        0.71750       -0.56590
H          2.23290       -0.95310       -0.08530
H          1.82400        2.42060        1.12750
H          4.91530        0.21930       -0.48210
H          4.90100        0.96520        2.64220
H          6.43140        0.52710        1.51420
H          3.96100       -0.91580        2.04700
