12
8473	1
O          2.93150       -0.03630        1.10910
C          2.31280       -0.10500        0.05790
C          2.78590       -0.99590       -1.06330
N          4.23130       -0.84170       -1.42010
C          4.48710       -2.25340       -0.99630
C          3.08820       -2.34280       -0.65580
O          2.39970       -3.25180       -0.22070
H          1.40860        0.48010       -0.06940
H          2.12060       -0.97300       -1.95320
H          4.71730       -0.20860       -0.74050
H          5.14760       -2.34500       -0.10560
H          4.74630       -2.91840       -1.84750
