15
9783	1
C          4.22980        2.72870       -0.56060
N          4.60570        2.00250        0.43100
N          3.82950        0.96230        0.89130
C          4.27970        0.15930        2.00270
C          4.45680        1.03340        3.24530
C          3.32360        1.08870        4.19730
O          4.46170        0.27570        4.42230
H          4.86140        3.54130       -0.90180
H          3.28590        2.54140       -1.06470
H          2.92930        0.73850        0.43790
H          5.25270       -0.31090        1.74660
H          3.54400       -0.65450        2.19010
H          5.20390        1.85400        3.28280
H          2.45270        0.41480        4.05450
H          3.32700        1.89150        4.96320
