12
8918	1
N          0.90650        0.20450       -0.36580
C          2.04830        0.10980       -0.20210
C          3.49520       -0.01090        0.00510
O          3.78460       -1.20300        0.72990
C          4.43420       -0.83980        1.94530
C          4.52980        0.62680        1.94900
C          3.98450        1.10820        0.82520
H          4.02490       -0.01950       -0.97060
H          5.45270       -1.28050        1.97920
H          3.83030       -1.17600        2.81410
H          4.96960        1.23320        2.72980
H          3.92430        2.15890        0.57170
