13
7864	1
N          0.71840        0.39120       -0.61270
N          1.99570        0.70830       -0.21400
C          2.83850        1.23720       -1.02810
O          4.08800        1.53430       -0.59390
C          5.05510        2.09340       -1.36740
N          4.83740        2.38600       -2.60410
N          5.81530        2.95180       -3.38780
H          0.06480       -0.03160        0.06100
H          0.40140        0.56960       -1.57810
H          2.54650        1.44270       -2.05610
H          6.02610        2.29250       -0.92270
H          5.61330        3.17490       -4.37230
H          6.75130        3.15770       -3.00630
