16
6791	1
C          1.40210       -0.10190        0.06870
N          2.79670        0.11880       -0.35460
C          3.04710       -0.42430       -1.70510
C          2.90230        1.03490       -1.51970
C          4.12990        1.89850       -1.34210
C          5.51570        1.32070       -1.25340
O          3.98860        3.10940       -1.27270
H          1.32570       -1.09530        0.55780
H          0.65610       -0.06170       -0.75840
H          1.12690        0.67020        0.81700
H          2.17800       -0.95570       -2.15240
H          4.06490       -0.86060       -1.74860
H          1.93400        1.56020       -1.68530
H          5.75550        0.77040       -2.18710
H          5.58530        0.63160       -0.38600
H          6.26770        2.12770       -1.12190
