19
7916	1
C          1.37460        0.71350        0.35880
C          2.89060        0.88390        0.34550
N          3.44940        0.47730       -0.92630
C          4.84740        0.55570       -1.15070
N          5.33730        0.19260       -2.28370
C          6.75550        0.25770       -2.55070
C          7.03470       -0.23330       -3.96350
H          0.97140        1.03180        1.34330
H          1.10770       -0.35140        0.18980
H          0.91240        1.33710       -0.43590
H          3.33130        0.26540        1.15720
H          3.13630        1.95180        0.53230
H          2.83510        0.12750       -1.67850
H          5.50110        0.92350       -0.36200
H          7.30530       -0.38250       -1.82610
H          7.10990        1.30740       -2.45210
H          6.69630       -1.28530       -4.07640
H          8.12490       -0.18320       -4.16840
H          6.50110        0.40270       -4.70160
