16
8539	1
F          1.24490        0.06180        1.03710
C          1.77640       -0.26020       -0.19800
C          2.88940       -1.29640       -0.02310
C          2.33040       -2.67050        0.27770
C          3.01830       -2.39870       -1.07200
C          4.45990       -2.81670       -1.20240
C          5.40400       -1.95580       -1.59540
H          2.20950        0.65560       -0.65060
H          0.95920       -0.62320       -0.85860
H          3.72240       -1.08650        0.68360
H          1.28860       -2.94100        0.00260
H          2.96620       -3.39360        0.83290
H          2.48250       -2.04150       -1.97790
H          4.73310       -3.84480       -0.98590
H          5.15430       -0.92450       -1.82630
H          6.43380       -2.28500       -1.68790
