13
9195	1
O          1.22520       -0.73840       -0.17190
C          2.35350        0.00270        0.20210
C          2.81200        0.86040       -0.93840
N          2.89350        2.13210       -0.86850
N          3.33810        2.64070       -2.04790
C          3.54780        1.70490       -2.88820
C          3.23410        0.35560       -2.29560
H          0.45540       -0.11140       -0.15550
H          3.16770       -0.70030        0.47510
H          2.12980        0.61730        1.10390
H          3.90570        1.88400       -3.89300
H          4.13370       -0.29220       -2.23870
H          2.40300       -0.14940       -2.83080
