14
9019	1
C          0.83490       -0.22310       -0.03840
C          2.30760        0.14220        0.10690
N          2.64680        1.25870       -0.77100
C          3.11380        2.46350       -0.40490
N          3.31840        3.23910       -1.48700
C          2.95480        2.44590       -2.51900
N          2.54560        1.23730       -2.08720
H          0.59200       -1.07100        0.63610
H          0.61330       -0.52450       -1.08410
H          0.19890        0.64610        0.23330
H          2.93680       -0.73510       -0.15530
H          2.50710        0.41530        1.16630
H          3.30120        2.77250        0.61540
H          2.98860        2.74300       -3.55840
