17
7543	1
O          0.77150       -0.27550        0.04940
C          2.16370       -0.28830       -0.09970
C          2.76370       -1.33690        0.82830
O          4.16630       -1.34000        0.66940
C          4.73440       -2.31570        1.51520
C          6.22870       -2.24860        1.38240
C          6.94800       -3.29720        0.97010
H          0.43510        0.42000       -0.57350
H          2.58040        0.70920        0.16580
H          2.42790       -0.54320       -1.15060
H          2.33270       -2.32680        0.55200
H          2.48630       -1.06960        1.87410
H          4.36860       -3.33170        1.23830
H          4.49310       -2.10530        2.58160
H          6.73680       -1.32090        1.62910
H          6.47150       -4.23900        0.71560
H          8.02660       -3.21360        0.88570
