11
8976	1
N          0.93200       -0.08540        0.11780
N          2.30820       -0.05190        0.06790
C          2.97090        0.44950       -0.91840
N          4.31550        0.47730       -0.95740
C          4.56760        1.07620       -2.14190
O          3.44410        1.37860       -2.75510
N          2.43960        1.00420       -2.02480
H          1.44010        1.13290       -2.29200
H          0.46730       -0.50120        0.93680
H          0.34740        0.29270       -0.63910
H          5.55710        1.27770       -2.52960
