19
6744	1
C          0.93600        0.07200       -0.04810
C          2.46280        0.00430        0.04080
C          2.94140       -1.42810       -0.25550
C          3.06780        1.10500       -0.86300
O          4.46260        0.95630       -1.00920
C          3.68690        0.77260       -2.17400
C          3.90290        1.92350       -3.15110
H          0.47500       -0.65990        0.64930
H          0.59600       -0.15370       -1.08190
H          0.57910        1.08640        0.23190
H          2.75790        0.24400        1.08590
H          2.63030       -1.75520       -1.26970
H          2.49870       -2.13370        0.47970
H          4.04620       -1.49550       -0.16720
H          2.82860        2.16680       -0.63870
H          3.79150       -0.27110       -2.53050
H          3.83820        2.91590       -2.65490
H          3.13200        1.87250       -3.94750
H          4.90530        1.82550       -3.61760
