9
8861	1
O          0.90110        0.03230       -0.03200
N          2.21680        0.01650       -0.03520
C          2.85530       -1.09430       -0.03440
O          4.15850       -1.20030       -0.03730
C          4.40270       -2.49160       -0.03520
N          3.24150       -3.18170       -0.03090
O          2.30240       -2.28110       -0.03060
H          0.42770        0.87490       -0.03270
H          5.38740       -2.93920       -0.03670
