17
10091	1
C          1.73660       -0.11200       -0.04850
C          0.85090       -1.22690        0.51390
C         -0.42670       -1.51030       -0.28660
C         -1.52500       -0.45480       -0.17670
N         -1.36590        0.76820        0.23440
N         -0.13980        1.37160        0.43480
C          0.93790        1.10410       -0.48870
H          2.31980       -0.46370       -0.92730
H          2.45530        0.16270        0.75410
H          0.53290       -0.96190        1.54730
H          1.47400       -2.14450        0.58960
H         -0.85710       -2.41580        0.19340
H         -0.22040       -1.76940       -1.34650
H         -2.53380       -0.78450       -0.40240
H         -0.12680        2.27900        0.92250
H          1.60680        1.98350       -0.61020
H          0.49050        0.89990       -1.48730
