18
8210	1
C          0.96180        0.03720        0.04620
C          2.48080        0.08820        0.02630
C          2.96210        1.37630       -0.41440
C          3.35890        2.43800       -0.77770
C          3.84020        3.72610       -1.21840
N          3.04800        4.78750       -0.60180
C          3.54370        6.10070       -0.98450
H          0.61880       -0.94630        0.38290
H          0.54610        0.21930       -0.95090
H          0.54890        0.79190        0.72460
H          2.85710       -0.70100       -0.63440
H          2.85980       -0.13230        1.03050
H          3.76770        3.79310       -2.31000
H          4.89740        3.83540       -0.94910
H          3.09940        4.68470        0.41080
H          3.48190        6.24730       -2.06780
H          4.57900        6.25060       -0.66130
H          2.92940        6.87390       -0.51290
