14
6579	1
F          0.43040       -0.08140       -0.37780
C          1.76310       -0.20630       -0.02670
C          2.45460       -0.95050       -1.15230
C          2.76550        0.52210       -0.91580
N          3.95980        0.79470       -0.14990
N          3.89030        1.56600        0.98890
C          4.94100        1.83490        1.67860
H          2.01860       -0.79650        0.87930
H          2.00110       -0.97490       -2.16580
H          3.39020       -1.51340       -0.94340
H          2.20920        1.39590       -1.31770
H          4.86630        0.43150       -0.48420
H          4.85670        2.44470        2.57120
H          5.91620        1.45960        1.38130
