18
7143	1
C          0.96050       -0.18560        0.28820
C          2.44540       -0.07770        0.04680
C          3.05830        0.59100       -0.96620
C          2.31530        1.33840       -2.06470
N          2.64810        2.75850       -2.03250
C          4.57360        0.57480       -1.02870
O          5.08740        1.87460       -0.90880
H          0.73740        0.22180        1.29610
H          0.67500       -1.25790        0.27240
H          0.30910        0.34260       -0.42480
H          3.06760       -0.59230        0.77420
H          1.21770        1.24080       -2.03170
H          2.62960        0.91200       -3.04160
H          2.28450        3.17160       -1.14280
H          2.16440        3.23460       -2.82810
H          4.89720        0.09900       -1.98360
H          5.02140       -0.03930       -0.21810
H          5.32230        2.18420       -1.82250
