15
9573	1
O          0.63680       -0.02930       -0.16880
C          2.03500        0.09610       -0.11650
C          2.73840       -1.18830       -0.49940
C          2.09030       -2.30710       -0.84890
C          2.45370        1.20210       -1.08780
C          2.56470        2.57280       -0.53640
O          3.69920        1.75530       -0.76720
H          0.35110       -0.44290        0.68770
H          2.34790        0.36790        0.92000
H          3.82470       -1.20080       -0.48910
H          1.00700       -2.35380       -0.87810
H          2.65500       -3.19550       -1.11250
H          2.30450        1.10900       -2.18460
H          2.49040        2.73460        0.55960
H          2.61480        3.42010       -1.25110
