14
6619	1
O          1.14770       -0.10880       -0.02980
C          2.54340       -0.13610        0.04900
C          3.26640       -0.58460       -1.21160
C          3.09210        0.90390       -0.92180
C          4.43370        1.51110       -0.60160
C          5.43790        1.49760       -1.48480
F          6.63120        2.06260       -1.16570
H          0.86250       -1.04730        0.11420
H          3.00520        0.07870        1.03720
H          2.50720       -1.10450       -1.83510
H          4.13780       -1.15370       -0.82170
H          2.51720        1.29790       -1.78760
H          4.58000        1.98340        0.36500
H          5.31050        1.03900       -2.46090
