16
9752	1
N          0.79640       -0.45000        0.13250
C          1.93660       -0.39560       -0.05780
C          3.38200       -0.32630       -0.29920
C          4.15510       -0.68040        0.97300
C          5.66950       -0.64540        0.71390
C          6.24030        0.75800        0.70980
C          6.57890       -0.21410        1.84910
H          3.63840        0.70360       -0.62690
H          3.64170       -1.03700       -1.11270
H          3.88650       -1.71070        1.29280
H          3.86680        0.02130        1.78830
H          6.10930       -1.23680       -0.11850
H          5.70190        1.59260        1.20790
H          7.20970        0.94560        0.20190
H          5.97310       -0.19240        2.78040
H          7.47560       -0.86470        1.76710
