17
10136	1
C          1.06190        1.14220       -0.40480
C         -0.12780        1.54570        0.44030
C         -1.37580        0.85770       -0.02630
C         -1.53550       -0.46580       -0.18320
C         -0.51730       -1.56590        0.02150
C          0.95980       -1.30940        0.22430
C          1.63630       -0.16110        0.06420
H          1.86830        1.89850       -0.28780
H          0.78040        1.11200       -1.48040
H         -0.30950        2.63600        0.32110
H          0.07830        1.35310        1.51630
H         -2.22740        1.49260       -0.25710
H         -2.52380       -0.79990       -0.48720
H         -0.57800       -2.24450       -0.85530
H         -0.88040       -2.13970        0.90010
H          1.54250       -2.17420        0.52980
H          2.69870       -0.17320        0.29420
