17
6731	1
C          0.93620        0.19700        0.10940
C          2.45470        0.00920        0.01170
N          3.11360        1.28970       -0.27330
C          2.98690       -0.68830        1.29010
C          4.41820       -0.46590        1.73600
C          3.25430        0.21320        2.48160
F          3.13470       -0.39740        3.71720
H          0.54430        0.63830       -0.83150
H          0.68020        0.87080        0.95500
H          0.43760       -0.78290        0.26900
H          2.66110       -0.68150       -0.83500
H          2.82920        2.01360        0.42520
H          2.81270        1.62880       -1.21610
H          2.51450       -1.64270        1.61160
H          4.95420        0.08990        0.93890
H          4.79160       -1.44600        2.10320
H          3.53520        1.28620        2.46950
