15
10467	1
F          1.17360        0.06520        0.06460
C          2.56010        0.06240        0.03920
C          3.07660       -0.86790       -1.04170
C          4.59160       -0.69250       -0.89350
C          4.59510        0.83660       -0.86990
C          3.08090        1.02350       -1.01230
N          2.71030        0.09510       -2.08240
H          2.99220        0.04550        1.06670
H          2.68830       -1.90610       -1.11740
H          5.12760       -1.10280       -1.77730
H          4.96710       -1.14240        0.05250
H          5.13260        1.27130       -1.74110
H          4.97320        1.25540        0.08920
H          2.69740        2.06530       -1.05570
H          3.35000        0.10750       -2.91470
