8
9466	1
N          0.95320        0.05120        0.07670
C          2.11040        0.05710        0.07720
C          3.54590        0.06500        0.07770
N          4.30640        1.17490        0.07900
N          5.55830        0.74380        0.07900
N          5.55860       -0.57930        0.07780
H          6.41440       -1.17650        0.07760
N          4.31780       -1.03480        0.07700
