13
9870	1
N          0.81960        0.07500        0.83640
C          1.88180       -0.28820        1.11790
C          3.20440       -0.74030        1.46820
C          4.26390       -0.35940        0.75030
N          5.56390       -0.81370        1.10790
C          6.49310       -1.21320        0.11930
C          6.67690        0.05810        1.06620
H          3.33130       -1.39590        2.32440
H          4.13370        0.29810       -0.10790
H          6.05900       -1.07700       -0.89560
H          6.89440       -2.20150        0.42430
H          6.36790        1.06060        0.69650
H          7.20710       -0.03770        2.03600
