18
6458	1
C          2.02240        0.55300       -2.96270
C          2.67620        0.04210       -1.91500
C          3.03990        0.88760       -0.72470
C          4.56510        0.93330       -0.54870
C          5.06190        1.63970        0.69900
C          5.98790        0.44020        0.80070
N          5.20530       -0.33420       -0.17050
H          1.77400       -0.08060       -3.80780
H          1.73410        1.59990       -2.98650
H          2.95260       -1.00860       -1.92240
H          2.55470        0.46070        0.17940
H          2.67270        1.92990       -0.85170
H          5.08350        1.33580       -1.45200
H          4.30350        1.55440        1.50930
H          5.51870        2.64560        0.58120
H          6.07280       -0.01120        1.81470
H          6.98040        0.66720        0.34570
H          4.52470       -0.90740        0.38320
