19
6540	1
C          1.21050       -1.21730       -1.77770
N          2.65450       -1.10910       -1.56740
C          3.12400        0.24600       -1.87140
C          4.62610        0.35660       -1.56580
N          5.50540       -0.21080       -2.61580
C          5.41160        1.25210       -2.40940
C          6.70120        1.80750       -1.81180
H          0.88150       -2.25180       -1.54440
H          0.94640       -0.99280       -2.83470
H          0.66780       -0.52250       -1.10110
H          3.12960       -1.78670       -2.20890
H          2.59910        0.97930       -1.22100
H          2.89930        0.50340       -2.93230
H          5.00840        0.10800       -0.55250
H          4.94940       -0.44450       -3.47120
H          4.94590        1.75840       -3.28510
H          7.10060        1.16630       -0.99610
H          6.50660        2.82190       -1.40640
H          7.46980        1.88340       -2.60900
