15
7072	1
C          4.36110       -1.53030       -2.53460
O          3.65670       -0.95240       -3.61010
N          3.82790        0.38510       -3.52710
C          2.88470        1.19430       -2.82070
C          1.81250        0.66690       -2.21810
C          4.90690        1.01900       -4.21740
N          5.73780        0.34190       -4.92820
H          4.23300       -2.63100       -2.58280
H          3.95440       -1.19310       -1.55630
H          5.45080       -1.32110       -2.60530
H          3.03090        2.27010       -2.77150
H          1.61730       -0.40000       -2.24260
H          1.11630        1.31310       -1.69350
H          5.02950        2.09600       -4.15340
H          5.66320       -0.68020       -5.02990
