14
9878	1
C          1.06950       -0.00720        0.10270
C          2.27500       -0.01000        0.10460
C          3.71600       -0.01180        0.10700
C          4.39450       -1.13960       -0.13680
C          5.90210       -1.15390       -0.14390
C          6.61480       -0.68170        1.04860
N          6.42200       -2.12590        0.84920
H          0.01120       -0.00460        0.10040
H          4.24400        0.91550        0.30850
H          3.86080       -2.06370       -0.34510
H          6.43570       -1.35300       -1.09650
H          6.02290       -0.31000        1.91550
H          7.68100       -0.41610        0.89410
H          5.67280       -2.43200        1.51510
