18
6516	1
C          3.27670       -0.81690       -1.75970
C          2.83780        0.13500       -0.64720
C          3.36420       -0.28400        0.73090
C          4.89930       -0.22440        0.79130
C          5.40710       -0.82150        2.09250
C          5.68250       -1.52560        0.76260
F          6.91070       -1.26730        0.17940
H          2.84600       -0.48040       -2.72610
H          2.91710       -1.84650       -1.54920
H          4.38250       -0.82780       -1.85630
H          1.72680        0.14250       -0.61230
H          3.18500        1.16440       -0.88350
H          2.97890       -1.29860        0.97870
H          2.96160        0.42520        1.48630
H          5.41470        0.74980        0.64690
H          4.80590       -1.56250        2.66170
H          6.40510       -0.51600        2.47300
H          5.02100       -2.29130        0.30430
