13
8750	1
N          1.06400       -0.14810       -0.16450
N          2.43390       -0.27740       -0.17070
C          3.04350       -1.09000        0.62070
O          2.42680       -1.87030        1.50550
C          3.36160       -2.61280        2.19080
C          4.71940       -2.16600        1.57600
O          4.36460       -1.23010        0.63060
H          0.61300        0.51260       -0.81240
H          0.47580       -0.70100        0.47720
H          3.18010       -3.69570        2.02150
H          3.31150       -2.37080        3.27400
H          5.23770       -3.01710        1.08480
H          5.37340       -1.69780        2.34250
