15
8572	1
O          2.53950        0.50280        1.47900
C          2.20960       -0.02060        0.22430
C          2.78080       -1.43010        0.11390
C          1.77640       -2.66370        0.22400
N          2.22820       -2.09790       -1.00000
C          3.05500       -2.83760       -1.89110
N          2.83190       -2.80660       -3.15380
H          2.17270        1.42450        1.49810
H          2.66500        0.60430       -0.57540
H          1.10220       -0.03530        0.10550
H          3.88050       -1.58590        0.18330
H          0.67800       -2.50840        0.25900
H          2.18610       -3.69150        0.33420
H          3.87890       -3.43420       -1.50910
H          2.05580       -2.24940       -3.54050
