11
6855	1
O          1.41700        0.01210        0.83960
C          2.31750       -0.02760        0.01780
O          2.83500       -1.15750       -0.44740
C          3.83250       -0.87990       -1.36440
C          5.04250       -0.11810       -0.84680
C          3.87540        0.68920       -1.39330
O          2.89550        1.05440       -0.48800
H          3.68490       -1.22230       -2.41200
H          5.91330       -0.15460       -1.53340
H          5.14190       -0.10050        0.25990
H          3.74580        1.00050       -2.45280
