12
8254	1
C          0.87630        0.02890        0.02780
C          2.21040        0.00700        0.01800
C          2.90990       -1.12530       -0.47140
C          3.50320       -2.07030       -0.87980
C          4.25810       -3.17570       -1.35620
C          5.66480       -3.00900       -1.20130
N          6.79390       -2.83900       -1.06010
H          0.35090        0.89720        0.40460
H          0.28560       -0.80820       -0.33460
H          2.78250        0.84750        0.38350
H          3.99420       -3.41180       -2.42370
H          3.90750       -4.13340       -0.88480
