16
9843	1
N          1.92150       -1.28050       -0.01000
C          2.78400       -0.12990        0.23030
C          2.95660        0.65240       -1.04180
C          4.16590        0.86360       -1.57680
C          4.30050        1.64980       -2.84580
C          5.04170        2.93350       -2.75850
O          5.66450        1.74990       -3.18220
H          1.78280       -1.78680        0.89430
H          2.39920       -1.93430       -0.67240
H          3.76140       -0.47480        0.63710
H          2.30820        0.53180        0.98500
H          2.07240        1.05420       -1.53010
H          5.05560        0.46710       -1.09250
H          3.75790        1.34060       -3.76360
H          5.45480        3.23370       -1.77250
H          4.94450        3.62740       -3.61850
