16
7986	1
C          1.15780        0.29650        0.05730
N          2.61630        0.21810       -0.01850
C          3.07160       -1.17230        0.05810
C          4.57000       -1.20370       -0.04130
C          5.33940       -1.73700        0.91910
C          6.77280       -1.73890        0.78680
C          7.97320       -1.74490        0.68450
H          0.84500        1.35900       -0.01180
H          0.78870       -0.11650        1.02130
H          0.69290       -0.25530       -0.78730
H          3.01730        0.75230        0.78750
H          2.66320       -1.74650       -0.80130
H          2.71660       -1.64610        1.00150
H          5.02820       -0.77090       -0.92500
H          4.90440       -2.17550        1.81160
H          9.02540       -1.74270        0.58030
