17
7684	1
C          0.88860        2.64040        0.51280
C          2.09060        2.00750        1.19710
O          3.16560        1.95470        0.28190
C          4.33600        1.48790        0.92310
C          5.08120        2.63140        1.54430
N          5.33860        2.62720        2.80500
N          6.01900        3.66400        3.39860
H          0.03340        2.68530        1.21980
H          0.59300        2.03730       -0.37190
H          1.13790        3.67140        0.18310
H          1.80200        0.98150        1.51900
H          2.34520        2.63560        2.08140
H          4.98820        1.02650        0.15290
H          4.12460        0.68130        1.66540
H          5.39860        3.46080        0.91720
H          6.21110        3.63450        4.40960
H          6.34130        4.47450        2.84780
