14
8035	1
C          1.13850        0.07590        0.49060
O          2.49880       -0.00570        0.32020
N          3.01230       -0.18320       -0.87960
C          4.28300       -0.25940       -1.03730
O          4.79260       -0.44180       -2.27600
C          6.12420       -0.52920       -2.49870
C          6.58080       -0.70920       -3.73720
H          0.91290        0.22490        1.56650
H          0.65610       -0.86360        0.14640
H          0.73480        0.93500       -0.08620
H          4.94310       -0.17700       -0.17520
H          6.83070       -0.45380       -1.67510
H          5.89120       -0.78670       -4.57220
H          7.64830       -0.77960       -3.91910
