14
8019	2
C          3.93380       -0.88960        0.63660
O          3.01750        0.04940        0.20640
C          3.30190        1.13620       -0.56550
C          4.54180        1.42310       -1.00670
N          4.77150        2.57470       -1.81000
C          6.01530        2.86940       -2.25720
O          6.19990        3.86040       -2.94580
H          3.40930       -1.65410        1.24560
H          4.71090       -0.40850        1.26830
H          4.40500       -1.39500       -0.23340
H          2.48320        1.79720       -0.83270
H          5.37780        0.77790       -0.75340
H          3.98400        3.19490       -2.05680
H          6.85780        2.22980       -2.00900
