20
7463	1
N          1.44620       -1.10440       -0.12380
C          2.74550       -0.43730       -0.13700
C          2.77410        0.69960       -1.16760
C          4.13940        1.39740       -1.17970
C          4.16800        2.53240       -2.20770
C          5.52160        3.19060       -2.22030
C          5.67390        4.48900       -1.94270
H          0.69870       -0.41340        0.11690
H          1.24630       -1.50350       -1.06980
H          3.53170       -1.18510       -0.37970
H          2.95210       -0.03100        0.87710
H          1.98390        1.44080       -0.91610
H          2.56520        0.28290       -2.17750
H          4.92840        0.65390       -1.43040
H          4.34830        1.81430       -0.16940
H          3.37050        3.26890       -1.96270
H          3.96730        2.12480       -3.22190
H          6.39640        2.59410       -2.46290
H          4.82030        5.11320       -1.69680
H          6.66360        4.93370       -1.96090
