14
9149	2
O          2.56830        1.01900        0.22760
C          2.11430       -0.10830        0.11650
C          2.91780       -1.27610        0.51880
C          2.50170       -2.51790        0.43060
N          3.47520       -3.40210        0.88350
C          4.65730       -2.70500        1.31840
C          4.31230       -1.20990        1.08090
H          1.11360       -0.24570       -0.28100
H          1.53350       -2.82750        0.05740
H          3.36250       -4.42580        0.90430
H          5.52800       -3.02030        0.70450
H          4.84130       -2.91030        2.39470
H          5.00140       -0.74830        0.34150
H          4.31420       -0.63810        2.03360
