13
9216	1
N          3.36980        0.08150       -0.99010
C          2.41220       -0.18450        0.07750
C          2.84710        0.48860        1.34190
C          3.05700        1.83280        1.54170
N          3.43760        1.99210        2.82500
N          3.45690        0.78840        3.38420
N          3.10280       -0.13310        2.50260
H          3.04030       -1.15580        2.70240
H          3.03610       -0.39210       -1.86060
H          4.29500       -0.33410       -0.73420
H          2.32510       -1.28170        0.24040
H          1.41570        0.21060       -0.21460
H          2.94670        2.63250        0.82180
