17
8399	1
N          0.84810        0.08000        0.11560
C          2.30430       -0.02950        0.03910
C          3.08380        0.92580        0.93190
N          3.88200       -0.16880        1.49820
C          2.92040       -1.10950        0.91610
C          3.57410       -2.24070        0.17000
C          4.29050       -3.16180        0.81880
H          0.56090        0.97290       -0.34580
H          0.52780        0.10970        1.11110
H          2.72540       -0.02200       -0.99180
H          2.44820        1.37820        1.73080
H          3.69100        1.67080        0.37450
H          3.80210       -0.17280        2.54290
H          2.21200       -1.46750        1.70270
H          3.45980       -2.31960       -0.90730
H          4.41720       -3.10900        1.89610
H          4.75300       -3.97580        0.27000
