15
10372	2
N          1.22270        0.14070        0.57240
C          2.38470       -0.07910        0.07330
N          2.77350       -1.32510       -0.42300
C          4.12020       -1.30570       -0.90310
C          4.60330        0.13740       -0.62610
C          3.91480        1.19470       -1.47680
C          3.42860        0.96830       -0.05530
H          0.52260       -0.61280        0.63490
H          2.16990       -2.16040       -0.43650
H          4.16620       -1.55690       -1.98430
H          4.72780       -2.02600       -0.31640
H          5.67700        0.40180       -0.72890
H          3.14130        0.87970       -2.21210
H          4.34160        2.21980       -1.49840
H          3.85770        1.42610        0.86070
