15
10021	1
C         -1.69250        0.70510       -0.23750
C         -0.33580        1.21080        0.21090
C          0.46700        0.11420       -0.38450
C         -0.35760       -1.13940       -0.20700
O         -1.70190       -0.70470       -0.07750
C          1.85410        0.20820       -0.94010
O          1.64370       -0.02410        0.40600
H         -1.84670        0.92800       -1.31880
H         -2.50280        1.19140        0.34570
H         -0.28630        1.15560        1.32300
H         -0.09720        2.23590       -0.14410
H         -0.07940       -1.67800        0.72610
H         -0.24240       -1.80510       -1.08820
H          2.23870        1.23410       -1.11680
H          2.23510       -0.70020       -1.45100
