13
9396	1
C          0.90360       -0.05250       -0.06560
C          2.39460       -0.04610        0.25380
C          2.74600        1.10420        1.14620
C          3.29410        1.04550        2.40230
N          3.44200        2.31220        2.82650
O          3.00260        3.07610        1.86460
N          2.57510        2.39990        0.83530
H          0.66860       -0.91320       -0.72650
H          0.61390        0.88450       -0.58760
H          0.31050       -0.14830        0.86920
H          2.97560        0.03550       -0.68940
H          2.66060       -1.00350        0.75190
H          3.56540        0.16370        2.96730
