13
8122	1
C          3.15660       -0.71110        2.61690
C          3.46840       -0.38600        1.50340
C          3.84920        0.00550        0.13980
C          4.35370        1.41710        0.13770
C          5.59900        1.76860       -0.21420
C          6.01430        3.12670       -0.20390
C          6.36970        4.27310       -0.19670
H          2.88240       -0.99620        3.60650
H          2.98160       -0.06250       -0.52600
H          4.60550       -0.68660       -0.24780
H          3.64050        2.18480        0.43300
H          6.32760        1.02080       -0.51300
H          6.68250        5.29120       -0.18950
