12
9876	1
N          2.16590        0.00860       -2.01210
C          2.94010       -0.03830       -1.15310
C          3.90230       -0.09660       -0.08610
N          5.09150       -0.51790       -0.32130
N          6.02260       -0.57940        0.68860
C          6.89230       -1.68050        0.80070
C          7.35360       -0.17870        0.46680
H          3.61390        0.21760        0.91340
H          6.70470       -2.38830       -0.03600
H          6.84400       -2.03220        1.85190
H          7.47710        0.12660       -0.59520
H          7.62760        0.51930        1.28450
