17
9528	1
C          2.76850        1.94050       -0.71450
C          2.78130        0.58450       -0.00460
C          3.37740       -0.56640       -0.84210
O          2.58930       -0.84090       -1.97730
C          4.87150       -0.34020       -1.16700
C          5.43730       -1.05090       -2.33830
O          5.10590        0.32870       -2.37310
H          2.33710        2.70510       -0.03470
H          2.14380        1.90750       -1.63040
H          3.79900        2.25500       -0.98050
H          1.73840        0.32110        0.27600
H          3.37170        0.68710        0.93220
H          3.34050       -1.47170       -0.19910
H          2.66240       -0.07550       -2.60230
H          5.60070       -0.07700       -0.37180
H          4.77150       -1.56230       -3.06400
H          6.54150       -1.12080       -2.42500
