18
7006	1
C          2.83620       -0.92230        0.95520
C          3.21540        0.13440       -0.08000
N          4.04210       -0.42840       -1.14670
N          3.55870       -1.44160       -1.98340
C          2.44810       -0.96040       -2.80420
C          5.37530        0.05720       -1.32680
N          6.14150       -0.40760       -2.25040
H          2.24420       -0.44920        1.76680
H          3.75300       -1.36780        1.39650
H          2.21630       -1.72320        0.50360
H          3.76430        0.94100        0.45370
H          2.29860        0.59410       -0.50280
H          3.27340       -2.27230       -1.41790
H          2.75330       -0.05310       -3.36780
H          1.55430       -0.74270       -2.18410
H          2.17140       -1.74700       -3.53660
H          5.76020        0.83610       -0.67610
H          5.83370       -1.14580       -2.89910
