13
7358	1
C          0.89880       -0.14570        0.06420
C          2.40010       -0.07430        0.05940
C          3.06920        1.09210       -0.01930
C          2.37780        2.35830       -0.10500
C          1.73060        3.37580       -0.17320
C          4.47520        1.09210       -0.01930
C          5.66530        1.09210       -0.01930
H          0.57460       -1.20490        0.13560
H          0.49360        0.28870       -0.87410
H          0.49360        0.41080        0.93560
H          2.95510       -1.00790        0.12230
H          1.21410        4.29620       -0.23550
H          6.72360        1.09210       -0.01930
