16
8228	1
C          1.05860       -0.03170        0.09120
N          2.52170       -0.05940        0.09590
C          3.02070       -1.09110       -0.81820
C          4.46470       -1.09110       -0.81820
C          5.65490       -1.09110       -0.81820
C          7.06090       -1.09110       -0.81820
C          7.74200       -0.16570       -0.14010
H          0.70400        0.76090        0.78290
H          0.64530       -1.00700        0.43030
H          0.67550        0.20200       -0.92610
H          2.84050       -0.27630        1.07080
H          2.67430       -0.88830       -1.85480
H          2.66400       -2.09690       -0.50400
H          7.59530       -1.85320       -1.37620
H          7.22660        0.60590        0.42570
H          8.82710       -0.17760       -0.14900
