17
10019	1
C         -1.79030        0.70930       -0.15790
C         -1.63910       -0.73990        0.30480
C         -0.37200       -1.18290       -0.42330
C          0.47590        0.07800       -0.34880
C         -0.38620        1.27090        0.05420
C          1.91120        0.16050       -0.72150
O          1.51000       -0.08280        0.59960
H         -2.58030        1.28480        0.36960
H         -2.02200        0.70350       -1.24810
H         -2.51750       -1.38520        0.09180
H         -1.45140       -0.74060        1.40320
H         -0.61850       -1.34400       -1.49590
H          0.08470       -2.10760       -0.00870
H         -0.19710        2.20290       -0.51930
H         -0.25430        1.46790        1.14280
H          2.35700        1.17390       -0.79800
H          2.37630       -0.75300       -1.14680
