17
9601	1
C          1.01500       -0.32600        0.02570
C          2.53170       -0.24850       -0.14870
C          3.15790        0.91460        0.58060
O          2.46410        1.68850        1.22770
C          4.65420        1.11390        0.49120
C          5.31510        2.30320        1.18100
C          5.23660        0.96480        1.89310
H          0.62060       -1.20050       -0.53370
H          0.53340        0.59400       -0.36930
H          0.75550       -0.44540        1.09930
H          2.76140       -0.15590       -1.23190
H          2.98200       -1.19090        0.23060
H          5.24010        0.39530       -0.12220
H          4.52620        3.07030        1.32980
H          6.19680        2.53510        0.54630
H          4.63700        1.18850        2.80220
H          6.29780        0.65740        2.01050
