15
9581	1
C          0.91410       -0.01340        0.07430
C          2.44220       -0.00050        0.10560
C          2.94820        0.38160       -1.23680
N          3.33710        0.67080       -2.28820
N          2.88560        0.82690        1.26470
C          4.31020        1.22970        1.23870
C          3.26550        2.23190        0.98760
H          0.54210       -0.69490       -0.72170
H          0.51990        1.00870       -0.11400
H          0.51870       -0.37260        1.04880
H          2.77650       -1.04360        0.29000
H          4.87060        0.84860        0.35940
H          4.71600        1.20390        2.27280
H          3.09240        2.54980       -0.05970
H          2.97110        2.85830        1.85640
