13
7082	1
O          2.75260       -0.38930        1.49300
C          2.33310       -0.02660        0.20450
C          2.87710        1.35820       -0.17330
C          2.37690        2.40830        0.77880
O          1.69480        3.33520        0.37140
C          4.32110        1.35820       -0.17330
C          5.51130        1.35820       -0.17330
H          2.36130       -1.28430        1.66810
H          1.22050        0.00280        0.16700
H          2.70100       -0.77520       -0.53370
H          2.53250        1.59890       -1.20320
H          2.62000        2.34740        1.83560
H          6.56950        1.35810       -0.17310
