11
8858	1
N          1.04720       -0.07550       -0.04480
N          2.42310       -0.07720       -0.05700
C          3.09560        0.78950       -0.72670
O          4.40590        0.82270       -0.76510
C          4.73830        1.82990       -1.53890
C          3.56870        2.41900       -1.97810
O          2.56940        1.74790       -1.45480
H          0.54300       -0.78580        0.50380
H          0.50720        0.62480       -0.57530
H          5.75070        2.12750       -1.77650
H          3.47190        3.27510       -2.63210
