12
9892	1
F          0.93370        0.08350       -0.20880
C          2.31300        0.04230       -0.14100
C          2.72100       -0.64810        1.08260
C          3.05680       -1.21720        2.09110
C          3.46270       -1.90790        3.31790
C          3.67710       -3.37150        3.20250
O          4.74480       -2.45670        3.14940
H          2.71370        1.07680       -0.13330
H          2.71030       -0.50140       -1.02270
H          3.39590       -1.41420        4.30940
H          3.57660       -3.85340        2.20660
H          3.75430       -3.95130        4.14550
