17
8339	1
C          0.97220        0.05100        0.29990
C          2.46650       -0.14570        0.05110
O          3.24170        0.91590        0.55780
C          4.03050        0.01610        1.30770
C          3.12760       -1.15080        0.97090
C          3.80290       -2.34590        0.29000
O          2.83580       -3.22760       -0.21040
H          0.60630        0.90850       -0.30260
H          0.77300        0.25960        1.37290
H          0.41970       -0.86320       -0.00270
H          2.71590       -0.30080       -1.02400
H          4.03030        0.26280        2.39190
H          5.04060       -0.04910        0.84330
H          2.49170       -1.40040        1.85040
H          4.46860       -2.87170        1.01130
H          4.44210       -2.00850       -0.55420
H          2.47990       -3.73070        0.56800
