15
7555	2
N          2.02170        0.32530        2.66380
C          1.35150        0.65140        1.40920
C          2.00280       -0.08220        0.23620
O          3.34360        0.33780        0.07650
N          4.14380       -0.65070        0.51950
C          4.74400       -1.48450       -0.36020
O          5.48170       -2.37130        0.03900
H          1.55790        0.85710        3.43530
H          1.89900       -0.69440        2.86240
H          1.41330        1.74740        1.23290
H          0.27830        0.36490        1.47370
H          1.45280        0.17100       -0.69470
H          1.88960       -1.18640        0.36630
H          4.31950       -0.75370        1.53110
H          4.57180       -1.36870       -1.42580
