13
9117	1
F          1.21780        0.72860        0.62330
C          2.16440       -0.09970        0.05040
C          2.76620       -0.97810        1.10180
N          2.70640       -2.24330        1.06340
O          3.30540       -2.78810        2.08980
C          3.84950       -1.85660        2.95320
C          3.50050       -0.49440        2.30130
H          2.96020        0.51910       -0.41390
H          1.67920       -0.71220       -0.73910
H          4.94900       -2.00100        3.01810
H          3.37960       -1.95450        3.95500
H          4.40880        0.06730        1.99540
H          2.83210        0.11710        2.94420
