11
8468	1
O          1.38030        0.08650        0.58160
C          2.53360       -0.03070        0.19850
N          3.32630        0.90560       -0.22460
C          4.41940        0.00950       -0.46590
C          3.46460       -1.17720        0.07980
C          3.04810       -2.14390       -0.94340
N          2.73020       -2.91120       -1.74950
H          3.19390        1.92070       -0.34170
H          5.28090        0.24800        0.19480
H          4.64400       -0.01820       -1.55600
H          3.70050       -1.59540        1.08070
