10
10159	1
O          0.87170       -1.22510        0.00170
C         -0.45500       -1.49410       -0.00050
N         -1.40100       -0.62660       -0.00280
C         -1.35740        0.78680       -0.00360
N         -0.28910        1.49720       -0.00220
C          1.07680        1.12270        0.00060
N          1.53280       -0.08090        0.00210
H         -0.74030       -2.54010       -0.00040
H         -2.30720        1.30990       -0.00570
H          1.80280        1.92790        0.00130
