12
8163	1
F          0.73540       -0.25310        0.05750
C          2.09090       -0.18200        0.00440
C          2.83240       -1.09780        0.63310
C          4.30820       -1.03980        0.58880
C          5.04860       -1.96020        1.22060
C          6.51980       -1.90540        1.17850
O          7.17820       -2.75220        1.75990
H          2.55830        0.62480       -0.55270
H          2.33850       -1.89430        1.18330
H          4.79540       -0.23960        0.03600
H          4.56640       -2.76190        1.77440
H          7.02720       -1.11550        0.63280
