12
9220	1
C          1.47260       -0.16990        1.06150
O          2.59070       -0.10820        0.25850
C          3.19820       -1.20610       -0.24890
C          4.30930       -1.21710       -1.05140
N          4.58310       -2.50800       -1.33010
N          3.66790       -3.25000       -0.71630
N          2.81880       -2.47920       -0.05510
H          2.01160       -2.83100        0.50540
H          1.17110        0.85960        1.34380
H          1.69590       -0.74180        1.98760
H          0.63270       -0.64930        0.51440
H          4.87710       -0.36810       -1.40790
