11
8956	2
O          0.92820       -0.02670        0.05240
N          2.24430       -0.04620        0.05300
C          2.89000       -1.02650       -0.47130
C          4.37320       -1.16410       -0.53310
O          4.47080       -2.38740       -1.19340
N          3.29720       -2.92060       -1.49140
C          2.33650       -2.18940       -1.10440
H          0.45560        0.71660        0.45000
H          4.82030       -1.22310        0.48150
H          4.83390       -0.35090       -1.13240
H          1.29270       -2.43580       -1.24640
