12
10332	1
O          1.11750        0.01280        0.93390
C          2.38910        0.01850        0.35410
C          2.46560        0.79900       -0.94550
O          3.73460        1.07220       -1.42460
N          4.41330        0.00180       -1.74020
C          3.75800       -1.05340       -1.51280
C          2.41340       -0.76450       -0.94470
H          0.97320        0.93660        1.26460
H          3.28600       -0.08610        1.00260
H          1.60020        1.15940       -1.54410
H          4.15090       -2.04120       -1.71040
H          1.49560       -1.05740       -1.50040
