12
9258	1
C          1.35940       -0.09620        0.97900
O          2.46580       -0.01960        0.16260
C          3.07280       -1.11930       -0.33440
C          4.17550       -1.12580       -1.15150
C          4.41260       -2.46330       -1.38480
N          3.48480       -3.19120       -0.72870
O          2.69850       -2.35710       -0.11030
H          1.04170        0.92920        1.25850
H          1.60420       -0.65960        1.90510
H          0.52290       -0.59690        0.44560
H          4.73130       -0.27700       -1.52690
H          5.20520       -2.88210       -1.99000
