15
6572	2
O          1.01770        0.06370       -0.17680
C          2.40500       -0.06800       -0.06600
C          3.10290       -0.71080       -1.25210
C          3.04870        0.80960       -1.13620
N          4.36600        1.32690       -0.81200
C          5.50070        1.20680       -1.67240
N          5.42620        0.66800       -2.83930
H          0.65370       -0.82700        0.06210
H          2.87270        0.21390        0.90200
H          2.31490       -1.23590       -1.83380
H          3.93870       -1.28420       -0.79730
H          2.56110        1.17090       -2.06710
H          4.48410        1.83890        0.07450
H          6.45470        1.60140       -1.33900
H          4.54990        0.29080       -3.22360
