17
6483	1
C          0.87950        0.40550        0.54940
C          2.36110        0.24840        0.37610
C          3.17090        0.03840        1.42330
C          4.65650       -0.11720        1.23070
C          5.51530        0.70020        2.16470
O          6.15670       -0.45080        2.66520
C          5.27910       -1.28950        1.94900
H          0.57010        1.39940        0.16460
H          0.57290        0.32620        1.61450
H          0.35820       -0.38480       -0.02940
H          2.77450        0.30820       -0.62690
H          2.75840       -0.02170        2.42750
H          5.04340       -0.05000        0.18840
H          4.94820        1.18490        2.99200
H          6.22080        1.36990        1.62610
H          4.59470       -1.79340        2.66910
H          5.82370       -1.97490        1.26350
