11
9331	1
C          1.21280       -0.08230        0.61980
C          2.39460       -0.07870       -0.00270
C          3.09940       -1.33080       -0.31900
N          4.28930       -1.39120       -0.94240
N          4.59490       -2.67500       -1.04720
C          3.58280       -3.36350       -0.48480
O          2.66720       -2.53700       -0.03900
H          0.71480        0.85610        0.84090
H          0.73580       -1.01320        0.91190
H          2.84640        0.86820       -0.28230
H          3.53500       -4.44170       -0.41270
