19
9913	1
C          1.22630       -0.53840        0.37130
C          2.54470       -0.03040       -0.19930
C          3.14050        1.03770        0.73430
C          4.30740        1.84910        0.19750
C          4.75140        1.79240       -1.26710
C          2.94070        2.51800        0.36720
O          2.79370        3.26000        1.54240
H          0.81020       -1.32540       -0.29250
H          0.49310        0.29330        0.44230
H          1.38410       -0.97280        1.38170
H          2.34200        0.35340       -1.21910
H          3.25600       -0.88070       -0.27170
H          3.35050        0.77210        1.79390
H          5.04320        2.18120        0.96210
H          3.92590        1.61530       -1.98340
H          5.51230        0.99360       -1.38520
H          5.21670        2.76360       -1.53540
H          2.12000        2.56640       -0.38050
H          3.25280        4.12020        1.36350
