18
10222	1
C         -1.75390        0.72300        0.29000
C         -1.75910       -0.72560       -0.28470
C         -0.28210       -0.75400        0.09410
C          1.04040       -1.05710       -0.56580
N          1.94000       -0.01410        0.00110
C          1.04980        1.03650        0.56320
C         -0.27770        0.74040       -0.09120
H         -1.86010        0.69470        1.40150
H         -2.43320        1.46210       -0.18470
H         -1.86680       -0.69700       -1.39610
H         -2.44290       -1.46000        0.19100
H         -0.22210       -1.02490        1.18380
H          0.95560       -0.92390       -1.67060
H          1.39680       -2.08700       -0.35380
H          2.51010        0.38600       -0.78070
H          1.40830        2.07020        0.36530
H          0.98120        0.88770        1.66450
H         -0.21910        1.01250       -1.18060
