16
8655	1
F          2.57820       -1.08500        0.80960
C          2.37880        0.03280        0.02000
C          2.75010        1.29450        0.80000
C          2.51770        2.57830        0.06580
C          2.67030        3.53730        1.23350
O          2.06480        2.92770        2.36080
C          1.88660        1.56330        2.02390
H          1.31470        0.06680       -0.29790
H          3.01810       -0.04860       -0.88440
H          3.82160        1.24450        1.10830
H          1.46300        2.61370       -0.29540
H          3.20220        2.77580       -0.78660
H          2.21650        4.52280        0.99690
H          3.75020        3.67820        1.46550
H          0.80930        1.42020        1.77900
H          2.16400        0.88800        2.86090
