19
8337	1
C          2.25930       -1.47560        0.20340
C          2.42240        0.02270       -0.03230
C          2.94460        0.30330       -1.44760
C          3.36660        1.73080       -1.72310
O          4.66220        1.33190       -2.11810
C          4.40970        0.01060       -1.70010
C          4.66810       -1.01280       -2.80440
H          1.86440       -1.65060        1.22620
H          3.23780       -1.99240        0.10780
H          1.54680       -1.90560       -0.53250
H          3.11690        0.43830        0.73060
H          1.43360        0.51490        0.08800
H          2.29360       -0.05600       -2.27700
H          3.44950        2.35880       -0.80690
H          2.79720        2.19640       -2.55690
H          4.98550       -0.19370       -0.76810
H          4.12160       -0.74070       -3.73270
H          4.33710       -2.01750       -2.46750
H          5.75460       -1.04850       -3.02910
