12
7092	1
C          2.20510       -1.28800       -0.10180
O          2.39530        0.09510        0.10690
C          2.88120        0.71040       -1.07050
C          2.41330        2.09900       -1.08310
C          1.99700        3.22870       -1.14320
C          4.32520        0.71040       -1.07050
N          5.47630        0.71040       -1.07050
H          1.91370       -1.74970        0.86400
H          3.14570       -1.78560       -0.42820
H          1.37560       -1.47170       -0.81970
H          2.50860        0.23250       -2.00660
H          1.59430        4.20830       -1.14270
