15
10293	1
F          0.56950        0.00180       -0.25140
C          1.90890        0.09250        0.08830
C          2.80750       -0.90880       -0.59670
C          2.34270       -1.60730       -1.87450
N          2.70960       -0.73040       -2.96810
C          2.34500        0.57770       -2.46250
C          2.80860        0.61400       -1.00620
H          2.20010        0.37000        1.12240
H          3.86120       -1.09100       -0.28400
H          1.23840       -1.75610       -1.85740
H          2.82500       -2.60090       -1.98650
H          2.17360       -0.96290       -3.83660
H          1.24100        0.71710       -2.52290
H          2.82910        1.38010       -3.05770
H          3.86220        0.92780       -0.82590
