13
7613	1
O          3.06960        0.84890       -3.45760
C          2.32910        1.18750       -2.54770
C          2.83080        1.33270       -1.13030
N          4.26880        1.05670       -0.97520
C          5.11400        2.10060       -1.57020
C          6.52640        1.81590       -1.30140
N          7.64300        1.59590       -1.09200
H          1.28190        1.37420       -2.75860
H          2.26390        0.61410       -0.50100
H          2.59990        2.35440       -0.75830
H          4.50060        0.11380       -1.36800
H          4.86820        3.09120       -1.13140
H          4.97930        2.15120       -2.66930
