16
9616	1
C          1.00220        0.30820       -0.02850
C          2.51730        0.10390       -0.02310
C          3.04960       -0.45000       -1.32140
O          2.29140       -0.69940       -2.24950
C          4.53630       -0.70380       -1.45500
C          5.05480       -1.34700       -2.66780
N          5.12700        0.11790       -2.53910
H          0.67880        0.71650        0.95220
H          0.48250       -0.65890       -0.19890
H          0.71280        1.02700       -0.82480
H          2.77940       -0.59720        0.79820
H          3.00720        1.08140        0.17440
H          5.18790       -0.57610       -0.56480
H          4.35040       -1.64400       -3.47690
H          6.07280       -1.78030       -2.58210
H          4.38770        0.52260       -3.16110
