15
9124	1
N          1.53570        0.74460       -1.24620
N          2.44790        0.34850       -0.27800
C          3.05030        1.30600        0.57790
N          3.91050        0.99650        1.45910
C          4.36110        2.17320        2.17580
C          3.59470        3.35000        1.49870
N          2.77970        2.66960        0.53100
H          0.64030        0.23500       -1.06870
H          1.91340        0.45410       -2.17710
H          2.69950       -0.64800       -0.18880
H          5.46070        2.29540        2.07060
H          4.07780        2.07630        3.24590
H          4.28890        4.03840        0.96980
H          2.96230        3.89980        2.22820
H          2.12320        3.12740       -0.11730
