18
7513	1
C          1.21250        0.21500       -1.13390
C          2.01920        0.01120        0.14370
N          3.34460        0.62570        0.01030
C          4.13790        0.41700        1.22670
C          5.53930        1.01670        1.05080
C          6.41580        0.84210        2.26260
O          6.00960        0.27510        3.26580
H          0.21530       -0.26170       -1.02660
H          1.74020       -0.24510       -1.99610
H          1.06980        1.29900       -1.32990
H          2.12460       -1.08230        0.31970
H          1.46590        0.46390        0.99710
H          3.22450        1.65600       -0.13740
H          4.23940       -0.67370        1.42570
H          3.63500        0.90020        2.09550
H          5.44950        2.10450        0.84290
H          6.03640        0.52890        0.18520
H          7.42870        1.22990        2.24370
