14
8837	1
C          0.91950       -0.03590        0.11460
N          2.36150       -0.02730        0.02180
C          2.99630        0.12320       -1.08970
N          4.33880        0.13060       -1.17190
H          5.02390        0.02160       -0.39120
C          4.61870        0.30850       -2.47650
C          3.42800        0.40710       -3.17080
N          2.41180        0.29010       -2.29560
H          1.39330        0.32420       -2.52340
H          0.62470       -0.18010        1.17430
H          0.50100       -0.87070       -0.48740
H          0.50610        0.93230       -0.24060
H          5.61660        0.36240       -2.89110
H          3.31000        0.55340       -4.23630
