13
9624	2
O          4.59790        1.63700       -3.48480
N          3.66160        2.09700       -2.64120
C          3.76700        1.89310       -1.30390
O          2.89900        2.33150       -0.56200
C          4.95060        1.12510       -0.73800
C          5.72650        1.93950        0.20720
N          4.93900        0.78830        0.69890
H          4.24700        0.76730       -3.80700
H          2.85780        2.62160       -3.01910
H          5.64450        0.54480       -1.38240
H          5.30840        2.86200        0.67110
H          6.79570        1.68010        0.35690
H          4.06220        1.13860        1.14780
