11
10154	2
N          0.93190       -1.26550       -0.00100
C         -0.46110       -1.51160        0.00050
C         -1.44190       -0.61260        0.00190
N         -1.32770        0.79760        0.00230
N         -0.30190        1.50850        0.00160
C          1.07170        1.14210        0.00020
N          1.56710       -0.04630       -0.00090
H          1.53510       -2.10050       -0.00210
H         -0.76830       -2.55450        0.00040
H         -2.45330       -1.00800        0.00290
H          1.78070        1.96240        0.00000
