14
9225	1
C          2.70430       -1.67000        0.73350
N          2.29470       -0.30790        0.48470
C          2.97480        0.79260        1.06800
N          2.61740        2.07540        0.85590
C          3.49860        2.79880        1.57600
C          4.37250        1.94150        2.21030
N          4.03890        0.68250        1.88770
H          4.51350       -0.18910        2.21150
H          2.04080       -2.37020        0.18330
H          2.63650       -1.89320        1.81920
H          3.74820       -1.82060        0.38590
H          1.48800       -0.12970       -0.13200
H          3.50160        3.87890        1.63320
H          5.19290        2.21540        2.86040
