10
8471	1
O          1.18330        0.09770        0.33090
C          2.34070       -0.00770       -0.04200
O          3.10420        0.91660       -0.55570
C          4.17640        0.05010       -0.67390
C          3.29610       -1.11600       -0.03160
C          2.92370       -2.18390       -0.96760
N          2.63900       -3.02990       -1.70470
H          5.01910        0.37720       -0.02470
H          4.42450       -0.09300       -1.75100
H          3.53320       -1.42390        1.00960
