13
9872	1
O          2.45830       -0.57270       -0.25330
C          2.42600       -0.88970        0.92690
N          3.45380       -0.48910        1.82660
C          4.47890        0.20750        1.46100
N          5.48440        0.58860        2.40120
C          5.92960       -0.28540        3.42250
C          5.15780        1.08850        3.68480
H          1.59840       -1.48540        1.29590
H          4.59520        0.51780        0.42640
H          7.03820       -0.30260        3.38260
H          5.35950       -1.23890        3.39910
H          5.72810        2.02990        3.82520
H          4.05670        1.08070        3.83570
