14
10477	1
O          1.16000       -0.02180        0.03960
C          2.32090       -0.03970        0.41500
C          3.33420       -1.01410        0.06600
C          4.17490       -0.85800        1.33800
C          4.18270        0.69740        1.39040
C          3.34290        0.94700        0.13270
N          3.92700       -0.00430       -0.83620
H          3.10790       -2.00320       -0.38930
H          5.19680       -1.27310        1.20910
H          3.66760       -1.31160        2.22000
H          5.20860        1.10970        1.28690
H          3.68180        1.09580        2.30210
H          3.12590        1.96680       -0.25430
H          4.97580       -0.00610       -0.89160
