15
7831	1
C          1.02410       -0.06160        0.06170
C          2.48530       -0.06130        0.06220
C          3.68940       -0.06130        0.06280
C          5.15250       -0.06250        0.06090
C          5.68820        1.10230        0.88790
C          7.15620        1.10140        0.88150
C          8.36180        1.10530        0.87970
H          0.65460       -0.94360        0.62120
H          0.65460       -0.10510       -0.98190
H          0.65460        0.86400        0.54590
H          5.50150        0.01300       -0.99070
H          5.50330       -1.03160        0.47670
H          5.33150        1.02120        1.93780
H          5.32030        2.06660        0.47370
H          9.42100        1.10210        0.87330
