12
8276	1
O          0.93360       -0.07900        0.01680
C          2.35360       -0.07310        0.01570
C          2.83490        0.72200        1.12080
C          3.23160        1.37730        2.03160
C          3.70030        2.15150        3.10770
C          4.06340        1.59020        4.26000
F          4.51340        2.32960        5.29040
H          0.65640       -0.61620       -0.74300
H          2.69610        0.33510       -0.94010
H          2.70230       -1.10730        0.09480
H          3.76320        3.22810        2.99190
H          4.04710        0.53860        4.50760
