20
6680	1
C          1.05840        0.05310       -0.16590
C          2.58290        0.07980       -0.02750
C          3.12960        1.42260       -0.56900
N          2.94060       -0.26590        1.37260
C          4.36470       -0.39180        1.70050
C          4.15940        0.34590        3.01500
C          2.81980        0.75480        2.42180
H          0.76020        0.21980       -1.22320
H          0.59600        0.84110        0.46640
H          0.66660       -0.93600        0.15400
H          2.98510       -0.72620       -0.68040
H          2.70480        2.29900       -0.04070
H          2.84050        1.52790       -1.63660
H          4.23430        1.47360       -0.53690
H          5.00720        0.20650        1.02300
H          4.70900       -1.44220        1.81240
H          4.88030        1.14900        3.27840
H          3.97270       -0.40730        3.81270
H          2.89480        1.78720        2.02820
H          1.95180        0.60510        3.09900
