16
10199	1
C         -0.49030       -1.57370       -0.32700
C          0.77060       -1.20560        0.47150
C          1.22790        0.26470        0.35840
N          0.97250        1.01510       -0.87990
C          0.12750        1.23180        0.33650
C         -1.29170        0.74320        0.10610
C         -1.57480       -0.53950       -0.18290
H         -0.85130       -2.56150        0.03100
H         -0.26900       -1.68520       -1.40940
H          1.59720       -1.89490        0.19860
H          0.54620       -1.36130        1.54940
H          2.12170        0.61940        0.91300
H          0.51230        0.40470       -1.58870
H          0.28290        2.29020        0.63280
H         -2.10300        1.46120        0.16850
H         -2.60330       -0.82260       -0.38430
