13
9182	1
C          0.95950       -0.09450        0.08540
C          2.16020       -0.04420       -0.00900
C          3.59380        0.01720       -0.12160
N          4.31860       -1.02080       -0.20020
N          5.63080       -0.69160       -0.29770
C          5.84350        0.73130       -0.28600
C          4.39620        1.28760       -0.15960
H         -0.09460       -0.13860        0.16830
H          6.38040       -1.39410       -0.37150
H          6.32120        1.05010       -1.23690
H          6.46650        1.01340        0.58950
H          4.11190        1.89550       -1.04510
H          4.25720        1.85820        0.78350
