8
9333	1
N          1.05090       -0.08280        0.01990
C          2.20810       -0.07510        0.02030
C          3.64390       -0.06600        0.02080
N          4.39810        1.04620        0.02210
N          5.65940        0.64350        0.02220
C          5.63780       -0.70400        0.02090
O          4.39900       -1.13580        0.02000
H          6.51620       -1.33510        0.02060
