9
9059	1
O          1.16170       -0.30180       -0.55460
C          2.14300        0.08920        0.05790
N          2.77450       -0.73280        0.94870
C          3.85410       -0.45370        1.69240
N          4.16370       -1.52940        2.44020
N          3.26010       -2.45440        2.13760
N          2.41880       -1.97190        1.23430
H          2.51180        1.09660       -0.10980
H          4.39410        0.48450        1.69500
