19
6654	1
C          1.01640        0.30940       -0.22890
C          2.45160       -0.04170        0.18400
O          2.54430       -0.25300        1.57260
C          2.98800       -1.24550       -0.61580
C          4.36900       -1.80070       -0.26110
C          3.82830       -3.18030       -0.64960
C          2.41980       -2.64730       -0.37020
H          0.67240        1.20510        0.33040
H          0.32740       -0.53480       -0.01260
H          0.97450        0.53430       -1.31600
H          3.08810        0.83520       -0.06250
H          1.81000       -0.86120        1.84700
H          2.96460       -1.04490       -1.71500
H          4.50870       -1.78420        0.84520
H          5.25870       -1.40460       -0.79490
H          4.18550       -4.07410       -0.09540
H          3.94580       -3.30780       -1.75210
H          2.21230       -2.79700        0.71350
H          1.57900       -3.00160       -1.00340
