15
7573	1
F          2.81160       -0.15100        1.34940
C          2.32210        0.03430        0.06900
C          2.83850       -1.07320       -0.84980
N          4.30300       -1.04220       -0.92790
C          4.79930       -2.13190       -1.77300
C          6.26670       -2.10020       -1.81590
C          7.47140       -2.07580       -1.84090
H          2.63570        1.03520       -0.29960
H          1.21270        0.00400        0.11020
H          2.40280       -0.93250       -1.86580
H          2.49320       -2.05290       -0.44670
H          4.69200       -1.17290        0.03770
H          4.41440       -2.01790       -2.80880
H          4.46980       -3.12240       -1.38130
H          8.53010       -2.05410       -1.86400
