10
8099	1
O          3.02050       -3.52240       -0.44280
C          2.93710       -3.39130        0.76920
O          3.88710       -2.72130        1.46080
N          4.92920       -2.19020        0.85280
C          5.82100       -1.55790        1.52510
C          6.97790       -0.97010        0.83790
O          7.82680       -0.36880        1.47530
H          2.09130       -3.81710        1.29750
H          5.72400       -1.45520        2.60320
H          7.08250       -1.06800       -0.23810
