13
7777	4
O          0.83420        2.06630        1.04650
N          2.13350        1.89830        0.92770
C          2.61870        0.73560        0.67590
N          4.02220        0.54150        0.54530
N          4.90930        1.59490        0.68460
C          6.32810        1.45370        0.56290
N          6.90660        0.33060        0.31210
H          0.47560        2.94360        1.23600
H          1.95280       -0.11580        0.55990
H          4.35080       -0.40970        0.34380
H          4.54790        2.53870        0.88690
H          6.94710        2.33610        0.68800
H          6.40880       -0.55610        0.17810
