13
10402	1
N          1.47190        0.20010        0.34990
C          2.52400       -0.13410       -0.30270
O          2.68300       -1.31430       -0.88770
C          3.95330       -1.39410       -1.42710
C          4.66540       -0.04590       -1.06460
C          3.99040        1.30130       -1.62830
N          3.64210        0.68220       -0.41800
H          0.67480       -0.44820        0.42700
H          3.87660       -1.50510       -2.52950
H          4.50680       -2.25500       -0.99650
H          5.49600       -0.05840       -0.32770
H          3.19610        1.19440       -2.40000
H          4.49160        2.26890       -1.42060
