14
8526	1
O          2.50420       -0.89610        0.80980
C          2.04180        0.20110        0.07530
C          3.20590        1.15670       -0.17050
O          2.74380        2.41530       -0.60910
C          3.29060        2.36040        0.69010
C          4.63250        3.08250        0.74870
F          5.28250        2.74170        1.91950
H          1.73360       -1.51580        0.89380
H          1.21880        0.70470        0.63190
H          1.66330       -0.14010       -0.91360
H          4.08390        0.83930       -0.77250
H          2.50290        2.56330        1.44650
H          4.45690        4.17840        0.73990
H          5.28390        2.82350       -0.11390
