14
8188	1
C          1.31330       -0.57100        0.09630
O          2.67770       -0.26260        0.18730
N          3.19540        0.05540       -1.02950
C          4.43530        0.33950       -0.97030
C          5.03780        0.68040       -2.21250
C          5.54160        0.96770       -3.26540
C          6.15140        1.31670       -4.54760
H          0.92090       -0.82860        1.08000
H          1.16740       -1.42840       -0.57840
H          0.75840        0.29750       -0.28980
H          5.03220        0.33130       -0.03120
H          5.56990        2.09600       -5.05440
H          6.18010        0.44240       -5.21270
H          7.17140        1.67660       -4.41170
