13
9671	1
C          0.94430       -0.01210       -0.27100
C          2.25380       -0.05870        0.03640
C          2.72090       -1.02700        1.05300
O          3.90300       -1.09060        1.35170
C          3.27330        0.85450       -0.62050
C          3.52130        0.65250       -2.07210
O          2.69110        1.68300       -1.60060
H          0.23800       -0.67710        0.21760
H          0.55750        0.68380       -1.00760
H          2.01460       -1.69130        1.54220
H          3.93860        1.48970        0.00090
H          2.89740       -0.08390       -2.62140
H          4.44320        1.10070       -2.49670
