14
8132	1
C          4.23020       -0.73850       -0.29640
O          3.06400       -0.34730        0.33080
C          2.96150        0.64000        1.26500
C          4.01510        1.36250        1.69090
C          3.83810        2.42070        2.70750
C          4.87750        3.14200        3.13560
F          4.69300        4.11000        4.07060
H          4.00170       -1.56190       -1.00370
H          4.96380       -1.10950        0.45090
H          4.66200        0.10910       -0.87030
H          1.97860        0.84550        1.67900
H          5.00870        1.17840        1.29430
H          2.85070        2.61920        3.11590
H          5.87550        2.96540        2.74490
