17
7897	1
C          0.89260        0.12160        0.01560
N          2.35560        0.13820        0.02190
C          2.89450       -1.08540       -0.57830
C          4.39600       -1.00650       -0.61230
C          5.16010       -1.91100        0.02290
C          6.66370       -1.85120        0.01060
F          7.14490       -0.77720       -0.71920
H          0.51320        1.05800        0.47620
H          0.50390       -0.74150        0.59980
H          0.51050        0.07090       -1.02660
H          2.67790        0.19880        1.01670
H          2.53500       -1.18520       -1.62590
H          2.55140       -1.97550       -0.00230
H          4.85260       -0.19100       -1.16520
H          4.69010       -2.72120        0.57370
H          7.06050       -2.78880       -0.43080
H          7.02940       -1.76440        1.05480
