15
10166	1
C         -1.41600        0.69880        0.02640
O         -1.51990       -0.71890        0.06520
C         -0.38050       -1.31450        0.67580
C          0.90850       -0.89680       -0.04920
C          2.08450        0.09500       -0.14050
C          0.80080        0.61440        0.32330
O         -0.18350        1.13750       -0.52290
H         -1.60730        1.14340        1.03120
H         -2.22560        1.07590       -0.63160
H         -0.48210       -2.41060        0.53260
H         -0.36040       -1.14970        1.77830
H          0.74880       -1.14080       -1.12450
H          2.36400        0.41750       -1.16730
H          2.81140       -0.02240        0.69070
H          0.79660        0.89740        1.40460
