15
7161	1
N          1.68110        1.02250       -0.61150
C          2.42630       -0.07240        0.00070
C          2.95990        0.34620        1.34440
C          1.99830        0.76490        2.43290
O          2.22310        2.10360        2.78890
N          4.23380        0.32800        1.54790
O          4.75120        0.67100        2.70920
H          1.30780        0.69600       -1.53200
H          2.33340        1.81950       -0.79570
H          3.25900       -0.37640       -0.67340
H          1.75360       -0.94610        0.13810
H          2.10190        0.08420        3.30990
H          0.94790        0.67260        2.08410
H          2.71800        2.10270        3.64910
H          5.70870        0.64740        2.83780
