19
6968	1
N          2.83950       -0.00700       -1.33140
C          2.30870       -0.15260        0.02270
C          2.94600        0.87070        0.98610
C          2.32940        0.76780        2.39410
N          0.89470        1.04090        2.36400
C          4.43670        0.63620        1.09160
C          5.32200        1.57260        0.73600
H          2.32800       -0.66830       -1.95950
H          3.84730       -0.28500       -1.34550
H          2.48090       -1.19090        0.38640
H          1.21120        0.02030       -0.01790
H          2.74500        1.89340        0.59310
H          2.82310        1.50180        3.07070
H          2.49810       -0.25200        2.80640
H          0.74000        2.02760        2.05330
H          0.51890        0.95090        3.33560
H          4.79800       -0.31770        1.46610
H          4.99590        2.53650        0.35750
H          6.38500        1.37350        0.82360
