12
9145	1
C          1.04520        0.10020        0.18110
O          2.30130        0.02420       -0.37810
C          2.91550        1.10150       -0.91990
N          4.06480        1.05760       -1.43770
O          4.37370        2.25500       -1.86810
C          3.33680        3.14390       -1.60540
O          2.39550        2.33480       -0.97780
H          0.75280       -0.90170        0.55680
H          0.30510        0.42640       -0.58100
H          1.04670        0.81490        1.03200
H          2.92850        3.56030       -2.55040
H          3.67640        3.95200       -0.92370
