16
9588	1
C          1.06410        0.00330        0.05860
C          2.58670        0.05770       -0.04710
C          3.06800        1.40450        0.15180
C          3.46470        2.51460        0.31580
C          3.22540       -0.87270        0.95990
C          4.63150       -0.72280        1.49470
N          3.46800       -0.51400        2.35980
H          0.59350        0.65730       -0.68410
H          0.71750        0.32000        1.04950
H          0.69840       -1.01590       -0.10790
H          2.87390       -0.28720       -1.04780
H          3.81790        3.50980        0.46050
H          2.88560       -1.89390        0.80510
H          5.22230        0.15210        1.25770
H          5.20170       -1.62440        1.68490
H          3.31370        0.48480        2.51690
