16
8400	1
O          0.90990        0.14760        0.05530
C          2.30020        0.06840       -0.09020
C          3.08830        1.02000        0.79930
N          3.89540       -0.06920        1.35730
C          2.93850       -1.00960        0.77210
C          3.59820       -2.12820        0.01140
C          4.32850       -3.04770        0.64710
H          0.65150        1.03290       -0.30920
H          2.68630        0.06840       -1.13520
H          2.44990        1.46690        1.59970
H          3.68940        1.76690        0.23790
H          3.81580       -0.07950        2.40190
H          2.23400       -1.37970        1.55730
H          3.47740       -2.19880       -1.06560
H          4.46250       -3.00330        1.72360
H          4.79510       -3.85190        0.08730
