11
9057	1
C          2.77450       -1.13070        0.33310
C          2.26000        0.08450        0.12050
N          3.05670        1.15130       -0.41680
C          2.65970        2.40550       -0.67380
N          3.69670        3.10480       -1.17060
N          4.71930        2.25890       -1.20930
N          4.33220        1.07670       -0.75320
H          2.14970       -1.91900        0.74020
H          3.81310       -1.34720        0.10490
H          1.21630        0.26650        0.36030
H          1.66430        2.79740       -0.50930
