14
10183	1
C         -0.21370        1.39130        0.60440
C         -1.50860        0.70560        0.18140
N         -1.46700       -0.43790       -0.42950
O         -0.31110       -1.07070       -0.60150
C          0.75450       -0.74340        0.21500
C          2.08930       -0.29650       -0.20480
C          0.99510        0.76990       -0.13920
H         -0.10080        1.38840        1.71000
H         -0.27000        2.44890        0.27010
H         -2.46550        1.16600        0.40270
H          0.62220       -0.90800        1.31010
H          2.38460       -0.61850       -1.22730
H          2.79940       -0.26820        0.64810
H          0.84120        0.99400       -1.22130
