17
10118	1
C         -1.44010        0.64360        0.33010
C         -1.39560       -0.75290       -0.25450
C         -0.30000       -1.56880        0.36070
C          0.99330       -1.22170        0.42110
C          1.61440        0.04260       -0.04500
C          1.02350        1.20450       -0.38690
C         -0.43750        1.58070       -0.34550
H         -1.30440        0.60420        1.43390
H         -2.44310        1.08140        0.13130
H         -1.30550       -0.70410       -1.36170
H         -2.34550       -1.27910       -0.01630
H         -0.58050       -2.52930        0.78540
H          1.67410       -1.95100        0.85060
H          2.69880        0.02270       -0.10680
H          1.68540        1.99210       -0.73730
H         -0.74960        1.75400       -1.39840
H         -0.51790        2.55250        0.18760
