13
7608	1
C          1.86830        0.48550        0.40640
N          2.74550        0.74340       -0.49310
O          3.65010       -0.15670       -0.81900
C          4.59070        0.11690       -1.78180
O          5.41040       -0.97450       -1.93500
N          6.39670       -0.95280       -2.80760
C          7.16060       -1.97330       -2.94890
H          1.12770        1.23320        0.66760
H          1.85940       -0.47670        0.91060
H          5.19620        0.99670       -1.47140
H          4.08280        0.33940       -2.74600
H          7.96990       -1.94550       -3.67010
H          7.00510       -2.86750       -2.35200
