13
7253	1
F          2.32440        0.17340       -1.42330
C          2.08690       -0.07320       -0.08330
C          2.62230        1.07050        0.75250
C          1.79150        1.79780        1.52200
F          0.45810        1.53380        1.57260
C          4.07460        1.41440        0.74520
C          4.98530        0.73890        0.03270
H          2.58820       -1.01800        0.21420
H          0.99460       -0.22090        0.04710
H          2.17600        2.61750        2.12220
H          4.41840        2.25100        1.34820
H          4.71610       -0.10820       -0.58730
H          6.02760        1.03880        0.07190
