14
9704	1
C          1.57720       -0.49520       -0.08240
C          1.92540        0.63760       -1.00620
C          3.18560        1.05920       -1.22120
F          3.38580        2.12220       -2.04500
C          4.38500        0.43180       -0.56240
C          4.69890       -0.99330       -0.86900
O          5.29890        0.05990       -1.56910
H          1.93500       -0.27150        0.94470
H          2.02190       -1.44680       -0.43330
H          0.47490       -0.62340       -0.05400
H          1.11260        1.15430       -1.50850
H          4.96390        1.01570        0.18270
H          4.04870       -1.55400       -1.57220
H          5.45650       -1.48690       -0.22640
