17
7580	1
C          1.91400        3.22420       -2.01430
C          2.51090        2.57380       -1.01120
C          3.08410        1.19240       -1.19490
C          4.58720        1.15770       -0.88860
C          5.40390        2.02390       -1.86430
C          6.88490        1.97680       -1.59740
O          7.34660        1.30810       -0.68510
H          1.51080        4.21830       -1.85070
H          1.82440        2.77420       -2.99830
H          2.58510        3.05100       -0.03840
H          2.91350        0.81530       -2.22780
H          2.56110        0.50920       -0.49240
H          4.93120        0.10330       -0.97210
H          4.75800        1.50040        0.15610
H          5.07760        3.08280       -1.78910
H          5.22760        1.66990       -2.90270
H          7.55510        2.55000       -2.22930
