19
6552	1
C          1.64390        1.46520       -1.85320
N          3.05430        1.20930       -1.56050
C          3.52840        2.08220       -0.48280
C          4.98500        1.74900       -0.15320
C          6.00220        2.45490       -0.94010
N          5.69350        2.89210        0.45170
C          6.72320        2.45240        1.40830
H          1.31440        0.80370       -2.68200
H          1.48890        2.52230       -2.16350
H          1.01770        1.24110       -0.96290
H          3.60850        1.41000       -2.42640
H          2.92680        1.90990        0.43650
H          3.41580        3.15190       -0.77670
H          5.25420        0.74400        0.24320
H          5.66980        3.25340       -1.63670
H          7.01760        2.00790       -1.02520
H          7.53910        3.20480        1.43020
H          7.17450        1.45940        1.17960
H          6.27560        2.40440        2.42270
