14
9884	1
F          0.89710        0.00710        0.00280
C          2.27740        0.04390        0.05040
C          2.70510        0.82250        1.21280
C          3.05830        1.46480        2.17020
C          3.48650        2.24810        3.33800
C          4.93300        2.66650        3.11490
C          3.83200        3.71320        3.11820
H          2.66670        0.51650       -0.87470
H          2.67230       -0.98960        0.13190
H          3.49440        1.75280        4.33200
H          5.36740        2.74880        2.09430
H          5.56220        2.93120        3.99140
H          3.34770        4.01500        2.16340
H          3.54260        4.20740        4.07000
