15
7911	1
C          1.85140       -0.31640       -0.84590
O          3.13120       -0.12490       -0.38590
N          3.38030       -0.10620        0.90710
C          4.57740        0.07240        1.33580
C          4.85790        0.09480        2.80980
C          5.83540       -1.01180        3.19430
F          7.04080       -0.84340        2.53540
H          1.85480       -0.29870       -1.95510
H          1.18920        0.49380       -0.47310
H          1.46750       -1.29990       -0.50070
H          5.39450        0.21140        0.63210
H          3.91410       -0.04510        3.38170
H          5.29020        1.08140        3.08090
H          5.41110       -2.00600        2.93700
H          6.01970       -0.97780        4.28880
