14
7696	2
O          0.60620        0.20850        1.83130
N          1.91090        0.14020        1.98430
C          2.67440       -0.07370        0.97290
N          4.08890       -0.15140        1.12120
C          4.76200        0.00880        2.39790
C          5.54640       -1.25270        2.74370
F          6.49870       -1.50880        1.77320
H          0.03770        0.36960        2.59610
H          2.23950       -0.19960       -0.01530
H          4.65870       -0.32360        0.27950
H          4.04230        0.21020        3.21930
H          5.45910        0.87140        2.33480
H          4.85670       -2.12010        2.81950
H          6.05770       -1.11640        3.72000
