15
10048	1
C          0.94090        0.24810       -0.14200
C          2.32780       -0.31210        0.16270
C          2.96420       -1.15270       -0.87590
O          3.34630        0.19920       -0.64540
C          2.72810       -0.62570        1.60820
C          3.98060       -0.03500        2.15500
O          2.72350        0.55750        2.36870
H          0.81000        0.44620       -1.22770
H          0.79620        1.20100        0.40840
H          0.16860       -0.47860        0.18560
H          2.52840       -1.18920       -1.89640
H          3.84120       -1.77880       -0.60760
H          2.19250       -1.41440        2.17650
H          4.58690        0.64770        1.52440
H          4.35170       -0.43970        3.11910
