15
6685	1
O          1.04310        0.15940        0.02570
C          2.38360        0.28860        0.11180
O          2.92420        0.33600        1.20720
C          3.20490        0.37350       -1.14450
C          4.18700        1.53790       -1.28200
C          5.11860        0.56230       -2.00780
C          4.39180       -0.57990       -1.29130
H          0.49380        0.10280        0.82040
H          2.57950        0.31710       -2.06790
H          4.63800        1.76900       -0.28790
H          3.85780        2.45730       -1.81090
H          6.21640        0.66790       -1.87620
H          4.83500        0.53970       -3.08700
H          4.87950       -0.72900       -0.29890
H          4.24440       -1.54070       -1.82850
