15
8546	1
C          1.42500       -0.29200        0.00910
O          2.73800        0.13120       -0.27050
C          3.13500        1.03060        0.73800
C          4.16240        2.04340        0.25090
C          2.70660        2.46660        0.46440
C          2.61670        3.41540        1.62920
O          2.92640        3.06580        2.75830
H          1.12000       -1.02040       -0.76990
H          0.70590        0.55600       -0.03750
H          1.36990       -0.81980        0.98770
H          3.30580        0.66610        1.77610
H          4.49110        1.72410       -0.76210
H          4.89660        2.17250        1.07640
H          2.35360        2.80860       -0.53170
H          2.25710        4.42500        1.46330
