16
9362	1
C          1.24180       -0.71560       -0.67020
C          2.35670        0.05430        0.03110
C          2.83150        1.20530       -0.80560
C          2.78580        2.54180       -0.46140
C          3.32980        3.23470       -1.52450
N          3.70090        2.37230       -2.49020
H          4.14080        2.62030       -3.40390
C          3.40210        1.13260       -2.06130
H          0.90850       -1.55610       -0.02580
H          1.60160       -1.13200       -1.63510
H          0.37510       -0.04720       -0.86130
H          3.21060       -0.62760        0.23060
H          1.97230        0.43140        1.00360
H          2.40100        2.96510        0.45710
H          3.44880        4.30820       -1.58910
H          3.58960        0.23060       -2.62920
