16
8140	2
C          0.76180        1.57730       -0.21900
N          2.19460        1.41440       -0.11210
C          3.00200        1.75920       -1.05370
C          4.45200        1.56480       -0.87980
C          5.31260        1.90170       -1.84960
N          6.70930        1.71020       -1.67830
N          7.58950        2.06010       -2.69500
H          0.40620        2.22690        0.60720
H          0.27440        0.58450       -0.12950
H          0.46130        2.03570       -1.18700
H          2.62310        2.18980       -1.97840
H          4.82190        1.13970        0.04960
H          4.94370        2.32470       -2.78090
H          7.07430        1.31950       -0.79480
H          7.37510        1.46340       -3.52660
H          8.56190        1.83930       -2.38010
