21
6652	1
C          2.56680       -1.39140        0.14960
C          2.34520        0.10100       -0.12540
C          0.87150        0.34740       -0.49000
C          2.85110        0.93310        1.07960
C          2.68290        2.45570        1.10660
C          2.57030        2.33580        2.63040
C          2.13020        0.88140        2.43070
H          2.26900       -1.99510       -0.73430
H          1.96860       -1.72220        1.02570
H          3.64050       -1.59010        0.35460
H          2.96140        0.38280       -1.00730
H          0.19310        0.06240        0.34010
H          0.59800       -0.26190       -1.37790
H          0.69750        1.40800       -0.75960
H          3.93330        0.71750        1.26180
H          1.68120        2.74850        0.72240
H          3.48800        3.09020        0.67930
H          1.89910        3.03130        3.17750
H          3.59950        2.33690        3.06200
H          1.02750        0.87980        2.28180
H          2.44600        0.12110        3.17610
