17
10088	1
C         -1.44440        0.72390        0.12320
C         -1.42700       -0.79570       -0.09680
O         -0.25200       -1.40370        0.40850
C          0.83280       -1.17110       -0.47240
C          1.65900        0.02790        0.01050
O          0.92290        1.19250        0.35030
C         -0.21330        1.43700       -0.45550
H         -1.50450        0.95240        1.20970
H         -2.36220        1.11890       -0.36390
H         -1.59030       -1.04190       -1.17170
H         -2.30240       -1.23510        0.42620
H          0.52650       -1.02040       -1.53370
H          1.47850       -2.07420       -0.50370
H          2.45320        0.27200       -0.72700
H          2.16140       -0.29660        0.94650
H         -0.04700        1.22150       -1.53470
H         -0.40430        2.52940       -0.39880
