15
10137	1
C          1.05860        1.13400       -0.38130
C         -0.14580        1.50670        0.46050
C         -1.36450        0.79270       -0.04170
C         -1.46060       -0.53180       -0.24930
O         -0.46900       -1.44740       -0.05890
C          0.86950       -1.32570        0.16840
C          1.59280       -0.19930        0.04800
H          1.87260        1.87350       -0.21960
H          0.79420        1.14810       -1.46180
H         -0.34860        2.59530        0.36400
H          0.05090        1.28990        1.53380
H         -2.23360        1.40160       -0.27630
H         -2.41520       -0.90770       -0.60380
H          1.39880       -2.22140        0.47760
H          2.64820       -0.25120        0.30240
