12
9415	1
N          1.00710        0.16110       -0.04270
C          2.42320       -0.18920       -0.05570
C          2.78200       -0.94500        1.18440
N          3.26800       -2.20090        1.19420
C          3.43770       -2.44570        2.50760
O          3.07660       -1.40340        3.21880
N          2.66590       -0.45530        2.43180
H          0.78450        0.66970       -0.92880
H          0.82030        0.81580        0.75170
H          3.04290        0.73200       -0.11910
H          2.63390       -0.82080       -0.94580
H          3.81850       -3.37190        2.91610
