15
9289	1
C          2.23660       -0.57610        0.99160
C          2.64780        0.19890       -0.01720
C          3.21130       -0.36720       -1.26480
C          3.62610        0.38610       -2.27970
C          4.09490       -0.41040       -3.29090
C          3.98110       -1.72750       -2.92090
C          3.39020       -1.83670       -1.55460
H          1.82950       -0.12220        1.88930
H          2.29990       -1.65790        0.93560
H          2.56530        1.27750        0.08330
H          3.59680        1.46810       -2.30160
H          4.49390       -0.06620       -4.23570
H          4.28090       -2.56190       -3.54080
H          4.09720       -2.31430       -0.84400
H          2.41890       -2.37450       -1.57460
