15
10234	1
C         -1.43770        0.50950        0.32520
O         -1.25010       -0.61910        1.15110
C         -0.39660       -1.43630        0.38700
C          0.62330       -0.50150       -0.23350
O          1.49480        0.01270        0.75040
C          0.97070        1.30230        0.57260
C         -0.10600        0.80070       -0.36860
H         -1.79690        1.39070        0.89790
H         -2.20730        0.25610       -0.43960
H         -0.99650       -1.93690       -0.40790
H          0.09900       -2.21570        1.00340
H          1.20520       -0.86840       -1.10760
H          1.73130        1.92210        0.04600
H          0.58410        1.75370        1.51290
H         -0.14070        1.37640       -1.31840
