13
7241	1
C          1.07340       -0.37830       -0.02800
C          2.56210       -0.09600        0.12580
C          2.89270        1.35990       -0.07660
C          3.22470        2.16220        0.94100
F          3.26230        1.72480        2.21360
C          2.88870        1.89590       -1.39770
N          2.88660        2.33550       -2.47080
H          0.87240       -1.44090        0.14250
H          0.71940       -0.12740       -1.03340
H          0.48540        0.19700        0.69520
H          3.12580       -0.70320       -0.59360
H          2.88180       -0.43110        1.12020
H          3.48810        3.21030        0.88650
