18
9486	1
C          0.74210       -0.15160       -1.02070
C          2.00010       -0.01870       -0.15750
C          3.24500        0.16770       -1.03670
F          3.15040        1.32450       -1.79190
C          1.83720        1.17490        0.80620
C          1.26590        0.90790        2.18680
C          2.77480        1.11630        1.99530
H          0.83910       -1.01750       -1.71000
H          0.57460        0.76810       -1.62170
H         -0.14620       -0.31990       -0.37500
H          2.12360       -0.96830        0.41120
H          3.36120       -0.70010       -1.72060
H          4.15410        0.22750       -0.40140
H          1.79100        2.21370        0.41190
H          0.85690       -0.12520        2.19100
H          0.61310        1.78020        2.40390
H          3.22980        0.15430        2.31470
H          3.00260        2.05040        2.55070
