14
7999	1
F          3.10570       -1.51200       -1.06520
C          3.46540       -0.18440       -0.93210
C          2.92440        0.34920        0.36150
C          3.73510        0.84610        1.30880
C          3.19160        1.38180        2.60970
C          3.53470        2.83130        2.82200
O          4.16620        3.46520        1.98970
H          3.03230        0.39510       -1.77370
H          4.57270       -0.10620       -0.98360
H          1.84990        0.32700        0.52040
H          4.80990        0.86660        1.14780
H          3.62640        0.78880        3.44130
H          2.08550        1.28030        2.65140
H          3.21170        3.32350        3.73330
