11
8107	1
O          2.49930       -1.08900        0.30390
C          2.00440       -0.17710       -0.34250
O          2.77980        0.73180       -0.98680
C          4.13560        0.71140       -0.97240
C          4.81780        1.64830       -1.63660
C          6.22380        1.64830       -1.63660
C          7.41390        1.64830       -1.63660
H          0.92510       -0.09170       -0.40300
H          4.67100       -0.06220       -0.42400
H          4.28810        2.42150       -2.18470
H          8.47220        1.64820       -1.63650
