15
6995	1
C          2.74970       -0.79830        0.64320
O          2.86670        0.57070        0.32180
C          3.14970        0.73570       -1.05650
C          2.58950        2.08550       -1.52060
O          3.17470        3.15030       -0.81790
C          4.63730        0.68340       -1.28390
O          5.11760       -0.15450       -2.03030
H          2.62440       -0.88950        1.74160
H          3.67040       -1.36250        0.37480
H          1.84670       -1.24250        0.16980
H          2.64150       -0.03890       -1.68220
H          1.48180        2.10470       -1.39920
H          2.79150        2.22430       -2.60460
H          2.68470        3.23150        0.04160
H          5.28980        1.38960       -0.78020
