16
6700	1
C          1.09930       -0.29970       -0.01590
C          2.45660        0.32750        0.07300
O          3.04140        0.35820        1.14590
C          3.09610        0.92060       -1.16200
C          3.57460        2.35640       -1.04740
C          4.80550        1.81750       -1.75730
N          4.43930        0.42170       -1.48390
H          0.77710       -0.68380        0.97560
H          1.12550       -1.14430       -0.73580
H          0.36320        0.45490       -0.36380
H          2.45660        0.80040       -2.06930
H          3.86170        2.58130        0.00410
H          2.98360        3.14780       -1.55500
H          5.78220        2.14650       -1.33710
H          4.73270        1.98530       -2.85730
H          4.93020        0.15350       -0.59700
