17
8494	1
O          1.66280        1.08160        0.08080
C          1.74020       -0.31350        0.00970
C          2.74890       -0.69640       -1.07510
C          2.65370       -2.17710       -1.45570
C          2.20850       -1.08490       -2.43440
C          3.16180       -0.72610       -3.58000
O          2.80870       -1.43550       -4.73430
H          1.05130        1.28570        0.83540
H          0.73030       -0.73120       -0.20610
H          2.10700       -0.71880        0.97890
H          3.81930       -0.42180       -0.95380
H          1.73460       -2.76190       -1.23670
H          3.55230       -2.67250       -1.88140
H          1.11990       -0.87840       -2.52800
H          4.23300       -0.90860       -3.33070
H          3.06440        0.35890       -3.79300
H          3.13010       -2.36570       -4.60310
