14
9805	1
F          5.93460       -1.95740       -0.94070
C          5.30330       -0.84970       -0.47190
C          5.71440       -0.27330        0.65670
O          5.08210        0.83110        1.12140
C          5.47090        1.47830        2.27920
C          6.87810        2.04380        2.12250
C          5.68220        2.97870        2.14440
H          4.46310       -0.43890       -1.02330
H          6.55710       -0.69510        1.19940
H          5.48450        0.89640        3.22610
H          7.32010        2.18550        1.11290
H          7.46090        2.31450        3.02840
H          5.20230        3.27600        1.18650
H          5.31510        3.39060        3.10830
