12
8790	1
N          0.91130       -0.00920        0.42510
C          2.05360        0.02560        0.24330
C          3.50410        0.07000        0.01240
C          4.01030       -1.17450       -0.77990
C          4.56570       -0.53640       -2.02050
N          4.43610        0.72410       -2.01310
N          3.83060        1.15170       -0.87690
H          4.04900        0.19280        0.97260
H          3.19550       -1.87840       -1.05860
H          4.81970       -1.70300       -0.23270
H          5.02710       -1.07110       -2.83960
H          3.64760        2.14690       -0.68200
