16
6582	1
N          0.79180        0.00990       -0.15910
C          2.24580        0.15420       -0.04240
C          2.94650       -0.81430       -0.98500
C          2.99350        0.68690       -1.26490
O          4.16110        1.31380       -0.87440
C          4.16410        2.43650       -0.11680
C          5.31930        2.99080        0.24710
H          0.51100       -0.91070        0.24910
H          0.46230        0.04670       -1.15170
H          2.69930        0.00030        0.96060
H          2.42420       -1.23520       -1.87040
H          3.98870       -1.12430       -0.75460
H          2.26950        1.27180       -1.87280
H          3.22840        2.89200        0.19840
H          6.26220        2.54850       -0.05880
H          5.32400        3.89030        0.85410
