18
6737	1
C          0.97090        0.02350       -0.07960
N          2.42590       -0.02350        0.12990
C          2.80850        1.00370        1.11490
C          2.81240       -1.40960        0.49520
C          4.25020       -1.60800       -0.00450
C          3.96060       -1.70330        1.47520
O          3.86260       -3.01240        1.96490
H          0.65860        1.03560       -0.41680
H          0.42400       -0.23320        0.85560
H          0.67230       -0.68740       -0.88020
H          2.44700        2.00360        0.79050
H          3.91300        1.09030        1.17710
H          2.38400        0.77650        2.11780
H          2.28040       -2.22070       -0.05190
H          4.94620       -0.74670       -0.09310
H          4.57650       -2.62020       -0.32930
H          4.16060       -0.88990        2.19980
H          3.02950       -3.04260        2.50330
