15
9570	1
C          0.81440        0.49790       -0.16070
C          2.22290        0.03530        0.23250
C          3.30010        0.95860       -0.28250
O          3.02580        1.96450       -0.91960
C          2.32430       -0.04390        1.76090
C          2.01160       -1.34970        2.38790
O          3.34210       -0.90780        2.18370
H          0.72140        0.54580       -1.26690
H          0.59600        1.50180        0.26390
H          0.05780       -0.22150        0.21940
H          2.39390       -0.96600       -0.22240
H          4.34110        0.72330       -0.08470
H          2.25020        0.85920        2.40360
H          1.85560       -2.24370        1.74820
H          1.83150       -1.37220        3.48260
