13
8942	2
O          0.97590       -0.04830        0.23700
N          2.28720       -0.13310        0.15940
C          2.86290       -1.24860       -0.12050
C          4.35180       -1.42970       -0.22790
N          4.43390       -2.84000       -0.55320
C          3.15940       -3.43230       -0.63170
C          2.18520       -2.51260       -0.37870
H          0.55790        0.79700        0.44830
H          4.85800       -1.21700        0.73730
H          4.77890       -0.81050       -1.04480
H          5.31610       -3.34850       -0.70840
H          2.98580       -4.47500       -0.86190
H          1.12030       -2.70470       -0.37530
