14
7830	1
C          0.89380       -0.02050       -0.03360
C          2.35620       -0.03240        0.00580
C          3.56130       -0.04220        0.03840
C          5.02400       -0.05430        0.07880
O          5.51620        0.24150       -1.16900
N          6.81520        0.28970       -1.38090
C          7.27260        0.56600       -2.54680
H          0.54830        0.79530       -0.70140
H          0.49750        0.14620        0.98920
H          0.52620       -0.99390       -0.41830
H          5.37060       -1.06180        0.39300
H          5.37370        0.70290        0.81250
H          8.34370        0.60330       -2.71110
H          6.59630        0.76380       -3.37360
