17
6882	1
N          0.99720        0.10380        0.12660
C          2.45810        0.06990        0.09480
C          3.03070       -1.05040        0.97180
C          3.79340       -0.14450        1.94650
C          4.51360        0.79310        0.99670
C          3.06830        1.24110        0.87950
N          2.82910        0.90350        2.28530
H          0.63280       -0.75120       -0.35250
H          0.66990        0.93610       -0.41530
H          2.83450        0.03870       -0.95420
H          3.71960       -1.72320        0.41420
H          2.25080       -1.63220        1.51150
H          4.35070       -0.63740        2.77140
H          5.05880        0.39210        0.11070
H          5.11470        1.54140        1.56210
H          2.83680        2.27050        0.53150
H          1.86330        0.55630        2.50230
