13
8932	1
C          0.90060        0.01750       -0.22320
C          2.10230        0.02160       -0.12410
C          3.56650        0.02600       -0.00460
C          4.10740       -1.28150        0.65160
N          4.74050       -0.78430        1.84240
N          4.63660        0.56300        1.96290
C          4.00500        1.06600        0.98640
H         -0.15400        0.01390       -0.31000
H          4.03920        0.21730       -0.99130
H          4.86250       -1.77550        0.00350
H          3.30150       -1.99580        0.92980
H          5.22490       -1.37250        2.53540
H          3.82100        2.12860        0.89610
