19
7659	1
C          0.86380       -0.89670        0.24390
C          2.29110       -1.02760       -0.19810
C          2.85320       -0.13370       -1.02610
C          4.28690       -0.26680       -1.47060
C          4.39640       -0.37540       -2.99680
C          3.72530       -1.64170       -3.54280
O          3.89920       -1.72240       -4.93110
H          0.29980       -1.79890       -0.07150
H          0.37210       -0.00050       -0.19190
H          0.82980       -0.81710        1.35020
H          2.86980       -1.87100        0.16770
H          2.27280        0.70930       -1.39160
H          4.77740       -1.15090       -1.00620
H          4.83440        0.64020       -1.13690
H          5.47380       -0.40120       -3.27010
H          3.93990        0.52300       -3.46750
H          2.64030       -1.66670       -3.29270
H          4.18980       -2.53860       -3.08050
H          3.24740       -1.09270       -5.33650
