14
6774	1
N          1.27960       -0.44230       -0.47490
C          2.53260        0.15070       -0.16260
N          3.06780        0.99680       -0.96920
C          3.22890       -0.18640        1.12970
C          3.47440       -1.69430        1.16740
C          4.64750       -0.74040        1.06540
F          5.27980       -0.41520        2.25260
H          0.79340       -0.21050       -1.35330
H          0.84180       -1.10770        0.17850
H          2.60980        1.25370       -1.85600
H          2.70270        0.03100        2.08360
H          3.54730       -2.29440        0.23450
H          3.59370       -2.19820        2.15060
H          5.09230       -0.39930        0.10620
