13
7314	2
C          0.98790        0.11040       -0.05490
N          2.41010       -0.03310       -0.00570
C          3.02920       -1.05920        0.46340
N          2.35650       -2.22090        0.94100
O          2.99970       -3.40230        0.94230
C          4.43870       -1.05080        0.41360
C          5.62750       -1.01280        0.35670
H          0.75760        1.11410       -0.45380
H          0.59220        0.03480        0.97070
H          0.54390       -0.65350       -0.71480
H          1.33200       -2.25330        0.90140
H          3.77430       -3.32620        1.55350
H          6.67030       -0.96600        0.33520
