13
8933	1
C          1.01200       -0.06030       -0.20160
C          2.21540       -0.03820       -0.13070
C          3.68230       -0.01200       -0.04550
C          4.25720       -1.28740        0.63980
O          4.90420       -0.83720        1.77730
C          4.81950        0.48630        1.91230
C          4.12400        1.04760        0.89400
H         -0.04430       -0.07960       -0.26370
H          4.12990        0.15610       -1.04820
H          4.99010       -1.79080       -0.02650
H          3.46320       -2.01030        0.93020
H          5.25630        1.03620        2.73490
H          3.93170        2.10800        0.79270
