9
8862	1
N          1.10420        0.00640        0.03150
N          2.47820        0.06820        0.06300
C          3.09910        0.90010        0.81950
O          2.54470        1.76550        1.62880
N          3.50220        2.42190        2.21700
N          4.65800        1.95270        1.76240
O          4.39770        1.01320        0.89980
H          0.63980       -0.67300       -0.58700
H          0.52660        0.62890        0.61680
