17
7008	1
C          4.34460        1.94480       -0.44330
C          3.48490        0.77720       -0.91560
N          3.77490       -0.43960       -0.17190
O          3.51420       -0.49190        1.15330
C          4.72540       -0.30190        1.85840
C          4.20580       -1.61230       -0.87180
N          4.37960       -2.73140       -0.26210
H          4.10980        2.84580       -1.04820
H          5.42120        1.70130       -0.56670
H          4.13510        2.18170        0.61930
H          3.67530        0.63010       -2.00150
H          2.41170        1.03550       -0.78950
H          4.72380        0.69630        2.34140
H          5.64230       -0.39880        1.23050
H          4.79910       -1.07590        2.64970
H          4.38530       -1.56870       -1.94140
H          4.21800       -2.83410        0.74950
