15
6785	1
C          1.03110       -0.17440        0.02270
C          2.51180        0.16630        0.14020
O          3.26710       -0.44340       -0.86610
C          3.10010        0.96170       -0.96840
C          4.41900        1.62390       -0.70410
C          5.59760        1.33950       -1.58480
O          4.52690        2.41100        0.22360
H          0.85650       -1.19180        0.43010
H          0.67890       -0.14790       -1.03140
H          0.44150        0.55500        0.61570
H          3.03620        0.13350        1.11900
H          2.57050        1.15290       -1.92550
H          5.35660        1.62070       -2.63120
H          5.84520        0.25820       -1.54500
H          6.48470        1.92030       -1.25310
