12
8302	1
C          0.92620       -0.02690       -0.09740
C          2.38920       -0.02500       -0.09640
C          3.59460       -0.02300       -0.09530
C          5.00620       -0.02000       -0.09360
C          6.21160       -0.01680       -0.09180
C          7.67470       -0.01280       -0.08960
F          8.13160        1.12600        0.54550
H          0.55740       -1.06950       -0.00890
H          0.55630        0.41700       -1.04450
H          0.55490        0.57060        0.76050
H          8.04640       -0.02740       -1.13480
H          8.04640       -0.90970        0.44730
