15
7560	2
C          4.54840       -1.24570       -0.82230
O          4.01400       -0.01380       -0.39230
C          3.10890       -0.22920        0.67280
O          3.79420       -0.49840        1.87620
N          4.35220        0.65920        2.27960
C          3.76560        1.43760        3.31580
N          2.66780        1.07930        3.88120
H          5.29530       -1.04300       -1.61700
H          3.76100       -1.89100       -1.27060
H          5.08590       -1.76820       -0.00010
H          2.39890       -1.05980        0.45580
H          2.44710        0.66060        0.77760
H          5.24830        0.96310        1.86950
H          4.25380        2.35180        3.63630
H          2.17190        0.21890        3.60770
