15
8115	1
C          3.68630       -0.01020        1.25220
O          2.81170        0.34740        0.26000
C          3.18870        0.94170       -0.90000
C          4.48210        1.21590       -1.23120
C          4.83170        1.90380       -2.52480
C          6.11750        1.42160       -3.05230
C          7.17550        1.02760       -3.48080
H          3.13970       -0.48930        2.07720
H          4.19740        0.88890        1.64550
H          4.42610       -0.73110        0.85760
H          2.38880        1.20320       -1.56540
H          5.30840        0.97250       -0.56750
H          4.90700        2.99450       -2.34350
H          4.04790        1.74240       -3.28510
H          8.12970        0.76060       -3.85890
