15
8134	1
N          0.61410       -0.08780        1.09010
N          1.96140       -0.12880        0.81810
C          2.83200        0.22030        1.69820
C          4.26730        0.16320        1.37050
C          5.19260        0.52230        2.27140
C          6.66020        0.46930        1.95100
O          7.22870        1.74050        2.10020
H         -0.06030       -0.37310        0.36650
H          0.26510        0.22460        2.00920
H          2.51410        0.55730        2.68270
H          4.57000       -0.17530        0.38290
H          4.88860        0.86080        3.25860
H          6.86030        0.07920        0.92640
H          7.15410       -0.22460        2.66240
H          6.96440        2.26480        1.29930
