15
9961	1
C          1.69300        0.84980       -0.02670
O          2.32730       -0.33820        0.37830
C          2.85290       -0.95510       -0.77210
C          3.13870       -2.43360       -0.49400
N          2.63570       -3.03550        0.74480
C          1.98500       -2.05340       -1.40000
F          2.24970       -2.05550       -2.75750
H          1.23050        1.32010        0.86520
H          0.87020        0.65130       -0.75030
H          2.42970        1.57580       -0.43800
H          3.83800       -0.58550       -1.13080
H          3.85360       -3.03480       -1.09590
H          1.81230       -2.53590        1.15200
H          3.41020       -3.02540        1.44580
H          0.94590       -1.85550       -1.05950
