16
7173	2
C          3.22280       -0.41240       -1.40850
C          2.61640        0.36380       -0.24290
C          2.88030       -0.33760        1.07300
N          1.80760       -0.83820        1.88560
N          0.47700       -0.74760        1.49200
N          4.10560       -0.47370        1.45680
O          4.41360       -1.06930        2.58990
H          3.02900        0.13090       -2.35760
H          2.75930       -1.42010       -1.47470
H          4.32060       -0.52200       -1.28120
H          1.53510        0.48320       -0.44700
H          3.06120        1.38190       -0.20190
H          2.01750       -1.29980        2.78220
H          0.36090       -1.25240        0.58360
H          0.22120        0.26050        1.38940
H          5.33900       -1.15510        2.85510
