17
8182	1
C          1.98870        1.56350       -0.76850
C          2.51060        0.30270       -0.09720
C          3.06680       -0.66300       -1.10200
C          4.34680       -1.06080       -1.12530
C          4.81540       -1.97530       -2.08500
C          5.21220       -2.74930       -2.89730
C          5.69350       -3.68850       -3.88300
H          1.57610        2.24720       -0.01960
H          1.19540        1.33150       -1.48720
H          2.78900        2.08810       -1.30130
H          1.69360       -0.18610        0.44560
H          3.26840        0.57730        0.64600
H          2.36700       -1.05660       -1.83740
H          5.05770       -0.68240       -0.39680
H          5.57910       -3.29000       -4.89570
H          5.14170       -4.63210       -3.83060
H          6.75360       -3.91220       -3.72940
