16
8212	1
C          0.97930       -0.17550        0.20050
N          2.44150       -0.14020        0.16700
C          2.94030        1.12950        0.70290
C          4.38430        1.12950        0.70290
C          5.57450        1.12950        0.70290
C          7.01850        1.12950        0.70290
O          7.50090        0.09530        1.51520
H          0.62530       -1.14590       -0.20690
H          0.54960        0.64440       -0.41650
H          0.61330       -0.08710        1.24610
H          2.74720       -0.23660       -0.83070
H          2.59520        1.26590        1.75070
H          2.58180        1.98300        0.08600
H          7.40480        2.11640        1.04270
H          7.38050        0.96940       -0.33360
H          7.45960        0.42330        2.45170
