13
7300	1
N          2.58340        1.56240       -0.22530
C          2.34030        0.15950        0.10770
C          2.92220       -0.22130        1.44470
C          2.15350       -0.63670        2.45790
F          0.81430       -0.73170        2.35630
C          4.33870       -0.19200        1.63620
C          5.52860       -0.16630        1.79410
H          2.19740        1.75400       -1.14770
H          3.58840        1.71350       -0.30200
H          2.77580       -0.47670       -0.67230
H          1.25870       -0.01530        0.08530
H          2.48690       -0.93970        3.44040
H          6.58390       -0.14500        1.93850
