20
7439	1
N          0.52380        0.82910        0.48880
C          1.87050        0.70830       -0.05950
C          2.24610        1.97430       -0.83370
N          3.59750        1.84650       -1.39090
C          3.95370        3.04900       -2.15600
C          5.39400        2.98390       -2.68180
N          5.57660        1.88570       -3.62780
H          0.30090       -0.04770        1.01300
H         -0.16030        0.90610       -0.29910
H          1.91810       -0.17580       -0.73440
H          2.59290        0.55960        0.77250
H          2.20300        2.84290       -0.13910
H          1.50920        2.13080       -1.65430
H          3.59770        1.02440       -2.03750
H          3.87990        3.94260       -1.49530
H          3.25610        3.18520       -3.01260
H          6.11020        2.88380       -1.83620
H          5.60730        3.94150       -3.20640
H          5.55570        0.97620       -3.11480
H          6.52940        1.96910       -4.04870
