13
8029	1
O          2.25670       -1.18370       -0.80270
C          2.97750       -0.01240       -0.54530
C          2.96750        0.25150        0.93270
C          4.09910        0.32310        1.64320
O          4.03970        0.56390        2.97640
C          5.13240        0.65320        3.77670
O          6.26110        0.51760        3.32730
H          2.23690       -1.28370       -1.78990
H          2.49060        0.85040       -1.05090
H          4.01810       -0.12440       -0.92550
H          2.01250        0.38770        1.43280
H          5.05890        0.18800        1.14960
H          5.00040        0.84860        4.83510
