12
7302	1
O          2.68590       -0.92320        1.06280
C          2.38930       -0.02060        0.03320
C          2.93330       -0.54460       -1.27750
C          2.12290       -0.86790       -2.30600
F          0.78050       -0.73580       -2.20990
C          4.35940       -0.68450       -1.43410
C          5.54880       -0.80550       -1.57640
H          2.29740       -0.53610        1.89140
H          2.85370        0.96490        0.25380
H          1.29100        0.12400       -0.02100
H          2.50640       -1.24660       -3.24880
H          6.59680       -0.90000       -1.66900
