19
8491	1
N          1.03520       -0.27410        0.16220
C          2.42650        0.12470       -0.00880
C          2.89290        0.90830        1.22260
C          4.27730        1.53080        0.99840
C          3.03100        2.41100        1.09580
C          2.78590        3.15310        2.41500
N          3.40090        4.47350        2.35940
H          0.74590       -0.83740       -0.67010
H          0.43570        0.58260        0.19310
H          2.53280        0.71630       -0.94660
H          3.05400       -0.78770       -0.10360
H          2.90470        0.40840        2.21540
H          4.66670        1.68900       -0.03040
H          4.91430        1.74250        1.88370
H          2.61360        2.80830        0.14450
H          3.18560        2.59330        3.29100
H          1.68920        3.26790        2.55140
H          4.43920        4.36210        2.29430
H          3.19220        4.97490        3.25290
