12
8843	1
C          0.93710        0.02860        0.12320
N          2.37990        0.00390        0.05110
C          3.02260       -0.23450       -1.03910
N          4.35770       -0.26370       -1.13510
H          5.06610       -0.10680       -0.38420
N          4.62790       -0.53790       -2.40250
N          3.48710       -0.67420       -3.07050
N          2.47310       -0.48890       -2.23860
H          1.46440       -0.53930       -2.50330
H          0.62920        0.25460        1.16460
H          0.52150       -0.96100       -0.16420
H          0.53280        0.81760       -0.54670
