16
10315	1
N          1.05970        0.12340       -0.70840
C          2.18150        0.09250        0.22600
C          3.47030        0.76590       -0.23940
C          3.52740        1.24520       -1.70460
C          3.51180       -0.00990       -2.48320
C          3.42020       -1.11080       -1.68230
C          3.34180       -0.78010       -0.23030
H          0.45710        0.93840       -0.45550
H          0.49680       -0.74630       -0.56950
H          1.97310       -0.10360        1.30000
H          3.67340        1.48040        0.58590
H          4.48590        1.77250       -1.89180
H          2.67420        1.90870       -1.96000
H          3.57130       -0.05970       -3.56240
H          3.39970       -2.12090       -2.06820
H          4.16320       -1.11780        0.43550
