16
7738	1
O          0.45310       -0.70660       -0.81510
N          1.75660       -0.68970       -0.99110
C          2.53300       -1.27570       -0.15280
C          4.01940       -1.25430       -0.35460
C          4.56000       -2.67890       -0.48900
C          6.05010       -2.65350       -0.70050
C          6.89060       -3.25130        0.14940
H         -0.12610       -0.26380       -1.44960
H          2.11740       -1.78970        0.71050
H          4.48850       -0.75620        0.52140
H          4.27110       -0.67310       -1.27000
H          4.08940       -3.17620       -1.36460
H          4.29870       -3.25870        0.42470
H          6.45150       -2.13670       -1.56760
H          6.52210       -3.77660        1.02530
H          7.95990       -3.21520       -0.03180
