15
9530	1
O          2.73880       -1.11570       -0.65360
C          2.34680        0.02360        0.06170
C          2.84620        1.28940       -0.65070
O          2.36670        2.44230        0.00060
C          4.38400        1.28350       -0.79340
C          5.09140        2.58580       -0.83580
O          5.05230        1.77980        0.33140
H          2.38460       -1.89310       -0.14860
H          2.76870       -0.01350        1.09140
H          1.23550        0.06230        0.11420
H          2.41970        1.28560       -1.67680
H          2.64980        2.39720        0.95130
H          4.91580        0.42610       -1.25740
H          4.55410        3.52810       -0.60200
H          6.14220        2.59600       -1.19240
