14
7233	1
C          2.33530       -0.79650       -0.86360
O          2.07400       -0.12980        0.31580
C          3.04140        0.38460        1.12450
O          2.69590        1.02730        2.26980
C          1.38720        1.19190        2.66870
N          4.28540        0.26550        0.81010
O          5.22790        0.75910        1.58500
H          1.37600       -1.10970       -1.32410
H          2.94800       -1.70190       -0.66500
H          2.86960       -0.12790       -1.57210
H          1.36690        1.74490        3.63010
H          0.90350        0.20230        2.81560
H          0.82510        1.77600        1.90880
H          6.15710        0.66260        1.33720
