14
7742	2
F          1.09710        0.04770        1.16650
C          2.20860       -0.35250        0.49590
C          2.43470        0.08970       -0.74520
C          3.65360       -0.32790       -1.52440
N          3.27010       -1.00060       -2.74670
C          4.26480       -1.46240       -3.65030
N          3.93520       -2.06130       -4.73770
H          2.90340       -1.03160        0.98060
H          1.72320        0.76870       -1.20640
H          4.29710       -1.00750       -0.92290
H          4.23980        0.58240       -1.77300
H          2.27270       -1.14910       -2.96780
H          5.31600       -1.31040       -3.42480
H          2.94670       -2.22130       -4.98130
