19
7407	1
N          0.54730       -0.86020       -1.09050
C          1.99070       -0.76600       -0.90320
C          2.71820       -1.03190       -2.22480
C          4.23780       -0.94700       -2.04230
C          4.96730       -1.21180       -3.36540
C          6.48340       -1.13090       -3.19420
F          6.85680        0.13570       -2.78020
H          0.08230       -0.67090       -0.17370
H          0.23780       -0.12000       -1.76090
H          2.30750       -1.52040       -0.14930
H          2.25260        0.24740       -0.52390
H          2.39580       -0.27810       -2.97680
H          2.44390       -2.04490       -2.59340
H          4.56000       -1.70050       -1.28970
H          4.50340        0.06710       -1.67010
H          4.65030       -0.46530       -4.12630
H          4.70480       -2.22770       -3.73380
H          6.97660       -1.34800       -4.16490
H          6.82710       -1.87830       -2.44740
