15
10226	1
C         -1.48530        0.73030        0.02500
O         -1.36140       -0.64840        0.30620
C         -0.01050       -0.82680        0.60000
C          0.86390       -1.17070       -0.61580
C          1.79290       -0.04720       -0.17370
C          0.63290        0.52840        0.63950
O         -0.21440        1.32480       -0.13400
H         -2.03580        1.23500        0.84880
H         -2.04600        0.84470       -0.92600
H          0.23650       -1.41260        1.51410
H          0.35150       -0.84790       -1.55260
H          1.28650       -2.19470       -0.69330
H          2.28000        0.58610       -0.94530
H          2.53430       -0.47070        0.54390
H          0.83890        1.00480        1.62300
