16
7586	2
C          1.07490        1.20300       -1.27770
C          1.87760        0.21440       -0.87220
C          2.74930        0.35290        0.34940
C          4.23650        0.21960       -0.01400
N          4.54550       -1.05930       -0.63350
C          4.44540       -2.24400        0.02480
O          4.09240       -2.28950        1.19340
H          0.45850        1.07170       -2.16100
H          1.02680        2.14320       -0.73680
H          1.90040       -0.71350       -1.43630
H          2.45310       -0.41970        1.08730
H          2.59900        1.34470        0.83010
H          4.86440        0.35420        0.89350
H          4.48990        1.03660       -0.72540
H          4.87710       -1.06640       -1.60970
H          4.69670       -3.16580       -0.48980
