16
7610	1
C          1.30830        0.30830        1.07000
C          2.17080        0.22530        0.05260
C          2.93740       -1.03650       -0.23310
N          4.37580       -0.76440       -0.15620
C          5.15140       -1.95950       -0.50160
C          6.61480       -1.64100       -0.46300
O          7.35910       -2.24710        0.29090
H          0.77090        1.23380        1.24960
H          1.13340       -0.53840        1.72680
H          2.32410        1.09040       -0.58580
H          2.66850       -1.37100       -1.25870
H          2.66330       -1.84380        0.48440
H          4.61160       -0.48270        0.82560
H          4.90000       -2.29230       -1.53210
H          4.92330       -2.78600        0.20980
H          7.01700       -0.86760       -1.10930
