14
6671	1
F          3.17170       -0.87980        0.28800
C          2.26860        0.12060       -0.02090
F          1.32760        0.20850        0.99070
C          3.01770        1.44810       -0.20720
C          2.16590        2.68890       -0.40730
C          3.14430        3.30590        0.57810
N          3.66210        1.99590        0.99340
H          1.75180       -0.14330       -0.96740
H          3.78810        1.37470       -1.01150
H          1.18960        2.57100        0.11270
H          2.10740        3.12540       -1.42700
H          2.68570        3.91620        1.38820
H          3.95880        3.84580        0.04090
H          3.11290        1.71130        1.83960
