19
7461	1
C          0.99000       -0.16670       -0.15460
C          2.51430       -0.10580       -0.11800
C          3.00970        1.34450       -0.08360
C          4.54160        1.40150       -0.04690
C          5.03820        2.85470       -0.01230
C          6.53920        2.96620        0.02450
O          7.25160        1.97370        0.02540
H          0.66020       -1.22670       -0.17900
H          0.60470        0.34660       -1.06130
H          0.56240        0.31810        0.74890
H          2.91520       -0.61650       -1.02070
H          2.87310       -0.64500        0.78580
H          2.60190        1.85010        0.81970
H          2.64410        1.87870       -0.98840
H          4.94830        0.89640       -0.95100
H          4.90600        0.86780        0.85880
H          4.63120        3.36060        0.88950
H          4.67340        3.38920       -0.91570
H          6.99640        3.94970        0.05070
