14
6661	1
F          0.94570        0.28090       -0.17370
C          2.29010        0.03770        0.03710
F          2.47570       -0.38310        1.34240
C          2.78090       -1.01340       -0.96030
C          4.17200       -1.58630       -0.77710
N          3.68010       -2.95270       -0.98830
C          2.31700       -2.44640       -0.79020
H          2.85430        0.98050       -0.12010
H          2.65500       -0.72230       -2.02770
H          4.53810       -1.48330        0.27200
H          4.90950       -1.24850       -1.53530
H          3.95960       -3.56950       -0.19080
H          1.98960       -2.66450        0.25420
H          1.59150       -2.78710       -1.55860
