14
8628	1
C          2.26140        0.18900        1.21220
C          2.12720        0.06310       -0.11520
C          3.01710       -0.68910       -1.00260
N          3.12780       -2.12920       -0.80090
C          2.42520       -1.66770       -1.99450
C          3.06760       -1.83540       -3.26390
C          3.60480       -1.97790       -4.32820
H          1.56000        0.77950        1.79250
H          3.07960       -0.29080        1.74140
H          1.29750        0.58100       -0.59370
H          3.93930       -0.18320       -1.27160
H          2.46140       -2.44550       -0.09710
H          1.35020       -1.81880       -1.98750
H          4.08860       -2.10960       -5.26790
