17
9722	1
F          2.84980        0.24230        1.03900
C          2.12180       -0.16800       -0.06350
C          2.68980       -1.47050       -0.62070
N          4.06720       -1.27620       -1.08020
C          4.59070       -2.53900       -1.60100
C          4.51900       -2.71770       -3.10820
C          5.81480       -2.25710       -2.45310
H          2.15200        0.62510       -0.84020
H          1.06740       -0.32650        0.24490
H          2.05500       -1.78810       -1.47760
H          2.64800       -2.25480        0.16810
H          4.66710       -0.99110       -0.27070
H          4.89220       -3.32520       -0.87460
H          3.78770       -1.96550       -3.47600
H          4.31680       -3.80220       -3.23810
H          5.98700       -1.24660       -2.88140
H          6.53480       -3.07580       -2.66290
