17
7459	1
C          2.71340        1.85580       -3.38240
O          3.10010        2.57360       -2.23200
C          3.16760        1.70060       -1.12130
O          4.31220        0.87250       -1.19070
C          5.46670        1.60790       -0.83680
O          6.61650        0.81560       -1.04490
C          6.90910        0.74800       -2.42320
H          2.71200        2.55410       -4.24420
H          1.67880        1.45980       -3.28150
H          3.43900        1.04760       -3.62360
H          2.25690        1.06450       -1.03980
H          3.14650        2.29860       -0.18160
H          5.43330        1.84940        0.24840
H          5.54580        2.57780       -1.38710
H          7.78130        0.07680       -2.56150
H          7.19790        1.74510       -2.82280
H          6.06720        0.30570       -3.00070
