15
7745	2
N          0.89650       -1.12180        2.30230
N          2.26300       -1.16700        2.15600
C          2.83860       -0.71340        1.09700
C          4.33830       -0.75760        0.92510
N          5.04300       -1.35100        2.05240
C          6.46400       -1.48410        2.08280
N          7.21200       -1.08640        1.11320
H          0.46370       -1.49180        3.16000
H          0.29450       -0.72240        1.56600
H          2.24330       -0.28360        0.29530
H          4.69280        0.28550        0.78220
H          4.55630       -1.34630        0.00860
H          4.52030       -1.69540        2.87050
H          6.93030       -1.93570        2.95230
H          6.83360       -0.65060        0.26140
