11
7329	1
F          0.86770       -0.28900       -0.13530
C          2.22690       -0.30070       -0.08130
C          2.87320       -0.54920        1.06870
C          2.10710       -0.81950        2.31960
C          2.69960       -1.07340        3.49410
C          4.27920       -0.54920        1.06870
N          5.43020       -0.54920        1.06870
H          2.78310       -0.10330       -0.99440
H          1.02110       -0.81270        2.28790
H          3.77980       -1.09500        3.59420
H          2.09260       -1.26340        4.37340
