19
9970	1
C          0.89520       -0.03070       -0.05980
C          2.42690       -0.02170       -0.06220
C          3.24040       -0.60580       -1.20440
C          2.46960       -1.38990       -2.27370
C          3.01210        0.92030       -1.11750
C          4.29350        1.61710       -0.75010
C          5.37080        1.55630       -1.53870
H          0.53830       -0.96980        0.41100
H          0.44290        0.06370       -1.06630
H          0.53500        0.82620        0.54660
H          2.95760        0.03240        0.91390
H          4.15810       -1.06140       -0.77110
H          1.59410       -0.84830       -2.68280
H          2.13850       -2.36200       -1.85280
H          3.15490       -1.58970       -3.12300
H          2.47710        1.22600       -2.04240
H          4.33710        2.19220        0.16970
H          5.34830        0.99390       -2.46750
H          6.28130        2.07330       -1.25420
