13
6748	1
C          0.88760        0.11360       -0.11280
C          2.36320        0.38950        0.15600
O          3.18030       -0.50600       -0.56870
C          3.18990        0.83920       -0.99000
C          4.53340        1.50980       -0.69680
F          4.38480        2.88080       -0.78350
F          5.02250        1.18470        0.55780
H          0.58250       -0.80670        0.42740
H          0.67610       -0.02340       -1.19530
H          0.28460        0.96550        0.26380
H          2.73500        0.48580        1.19760
H          2.72210        0.93880       -1.99260
H          5.27110        1.18170       -1.45830
