17
9546	1
O          0.79970        0.72540       -0.41740
C          2.12080        0.40590       -0.07190
C          3.01860        0.63950       -1.25890
C          3.75110       -0.34490       -1.78860
C          2.56950        1.32960        1.07040
C          1.98480        0.92450        2.40850
C          3.48810        0.76840        2.14020
H          0.46050       -0.02200       -0.97660
H          2.16700       -0.65970        0.26040
H          3.07120        1.63310       -1.69530
H          3.72160       -1.34890       -1.37650
H          4.38830       -0.14510       -2.64390
H          2.48730        2.43290        0.95730
H          1.63190       -0.11340        2.58950
H          1.92510        1.67670        3.22330
H          3.88120       -0.20140        1.76600
H          4.18090        1.60100        2.38680
