15
8002	1
C          4.92380        0.33800       -0.78400
O          3.64840        0.19670       -0.27420
C          3.31810        0.22410        1.04780
C          4.22550        0.39720        2.02970
C          3.81730        0.42020        3.47640
C          4.18550        1.73880        4.08220
O          4.96680        1.79150        5.01850
H          4.88020        0.27300       -1.89050
H          5.58090       -0.47550       -0.40900
H          5.34240        1.32870       -0.50560
H          2.27190        0.10010        1.31010
H          5.27780        0.52290        1.79620
H          4.33910       -0.40610        4.00590
H          2.72210        0.27180        3.59470
H          3.75420        2.65440        3.68990
