15
8919	1
N          2.36600        1.22080       -0.13690
C          1.98250       -0.00170       -0.21970
N          2.82400       -0.98790       -0.80420
C          2.45590       -2.37750       -0.92890
C          3.68540       -3.03810       -1.61990
C          4.63540       -1.89380       -1.80830
C          4.09420       -0.74610       -1.32510
H          1.75370        1.93250        0.28720
H          1.00500       -0.28630        0.16060
H          1.54530       -2.47470       -1.55880
H          2.28130       -2.81640        0.07730
H          3.41150       -3.46830       -2.60670
H          4.14810       -3.81030       -0.96920
H          5.61480       -1.96140       -2.26300
H          4.58060        0.22080       -1.34210
