18
9740	1
C          0.95020        0.14850       -0.06420
N          2.39990        0.02170        0.08570
C          3.04950        1.33340       -0.01030
C          4.55640        1.19090        0.21440
C          5.23850        2.55960        0.15310
C          6.62550        2.58980       -0.36510
O          5.51230        2.96310       -1.15880
H          0.48380       -0.85650        0.00860
H          0.69110        0.58770       -1.05250
H          0.53120        0.78130        0.74740
H          2.75590       -0.59300       -0.68370
H          2.63660        2.01410        0.76800
H          2.86530        1.77890       -1.01460
H          4.97890        0.49990       -0.54880
H          4.73630        0.75430        1.22020
H          4.92280        3.40580        0.79890
H          7.06490        1.67720       -0.81920
H          7.22870        3.50420       -0.18850
