20
7363	1
C          1.71890       -1.70200       -0.19860
C          2.52360       -0.45840        0.16800
C          3.14400        0.20790       -1.07950
C          4.21040       -0.56160       -1.88630
N          5.32020       -0.95450       -1.02420
C          2.31460        1.24220       -1.81380
C          3.47520        1.67280       -0.88300
H          1.28180       -2.14510        0.72110
H          2.36710       -2.46510       -0.67710
H          0.89330       -1.43450       -0.89190
H          3.33260       -0.74030        0.87520
H          1.84450        0.24670        0.69700
H          4.60030        0.04740       -2.73350
H          3.74630       -1.47140       -2.32160
H          5.80290       -0.09440       -0.67560
H          6.00890       -1.49590       -1.59490
H          1.28210        1.22760       -1.40320
H          2.51080        1.14600       -2.90330
H          2.98430        2.25620       -0.07520
H          4.20110        2.17740       -1.55580
