15
6468	2
O          1.25510        1.47100       -3.52610
C          2.03490        1.19770       -2.62790
N          3.36660        1.32970       -2.81880
N          4.24900        1.01180       -1.78320
C          5.32220        0.12750       -2.25540
C          6.38950        1.06480       -1.71760
C          5.25410        2.06710       -1.59940
H          1.65200        0.84660       -1.67410
H          3.71790        1.66330       -3.73280
H          5.36830        0.08850       -3.37030
H          5.31760       -0.87690       -1.78000
H          7.24060        1.31950       -2.38460
H          6.66700        0.72790       -0.69360
H          5.27510        2.77730       -2.46070
H          5.19720        2.57480       -0.61250
