19
9089	1
C          3.76980        0.50230        0.77400
C          2.54800       -0.14510        0.12980
C          2.93150       -0.95200       -1.08320
C          2.76800       -2.26440       -1.17760
C          3.35030       -2.80050       -2.43610
C          3.42920       -1.52720       -3.28040
C          3.63250       -0.39150       -2.27690
H          3.45470        1.08630        1.66420
H          4.26930        1.19150        0.06040
H          4.49220       -0.27790        1.09630
H          1.82940        0.64490       -0.17550
H          2.05240       -0.79400        0.88490
H          2.36210       -2.87850       -0.38370
H          2.72000       -3.55910       -2.94770
H          4.35290       -3.21450       -2.19470
H          2.39890       -1.38020       -3.68400
H          4.11850       -1.54980       -4.15040
H          3.19420        0.54950       -2.67360
H          4.70210       -0.25170       -2.00980
