13
9080	1
C          0.99770       -0.05540       -0.05660
N          2.44120       -0.09030       -0.06640
C          3.14910        0.55500        0.79450
C          4.58500        0.58220        0.86560
C          4.85880        1.40160        1.94330
C          3.64020        1.83480        2.47930
N          2.63970        1.35670        1.82970
H          0.61260       -0.68290       -0.88630
H          0.63880        0.98650       -0.19930
H          0.61150       -0.45680        0.90490
H          5.30370        0.08230        0.22990
H          5.84730        1.65660        2.30110
H          3.52940        2.48990        3.33280
