15
6897	2
N          1.18310       -0.01630        0.10700
C          2.46450        0.04960        0.08950
N          3.33350       -1.01660        0.13370
C          4.60490       -0.35410        0.08600
C          4.34420        0.69880       -1.02080
C          3.33410        1.24230        0.01950
C          4.36780        0.80530        1.08650
H          0.70560       -0.92780        0.15840
H          3.12470       -2.02410        0.18690
H          5.48880       -1.02540        0.11000
H          3.95050        0.33290       -1.99810
H          5.21010        1.38730       -1.17710
H          2.85870        2.24460       -0.02590
H          3.99640        0.54030        2.10420
H          5.23620        1.50500        1.15320
