15
7280	1
N          0.65210        0.75940       -1.83160
N          1.02470       -0.50290       -2.29800
C          2.39440       -0.94020       -2.33020
C          2.73850       -2.31480       -2.85320
C          1.84590       -3.17160       -3.37200
N          3.30980       -0.13050       -1.88580
N          4.66580       -0.38310       -1.86520
H          0.17910        1.26020       -2.61760
H          1.47660        1.32790       -1.53800
H          0.27410       -1.12730       -2.61280
H          3.75620       -2.67110       -2.82340
H          0.79390       -2.95200       -3.46950
H          2.18410       -4.14200       -3.72270
H          5.29740        0.32090       -1.45890
H          5.08960       -1.20520       -2.30740
