18
7192	1
C          2.78990        0.15810       -0.44690
O          2.56600       -1.14210       -0.03780
C          3.51770       -2.07490        0.26830
C          2.99570       -3.43350        0.69420
N          2.20510       -4.02330       -0.38250
C          4.84700       -1.76890        0.19010
C          6.00590       -2.68730        0.49060
H          1.81320        0.65570       -0.61690
H          3.35950        0.16980       -1.40060
H          3.33750        0.72100        0.33880
H          2.35310       -3.29330        1.59100
H          3.77040       -4.15990        0.98260
H          1.37500       -3.41800       -0.57940
H          1.84480       -4.95100       -0.06140
H          5.13710       -0.77150       -0.11910
H          5.75730       -3.71360        0.79970
H          6.61390       -2.23570        1.30170
H          6.63800       -2.76500       -0.41820
