15
10484	1
N          0.86060       -0.07320       -0.38740
C          2.23490        0.29170        0.00400
C          3.43350       -0.47610       -0.58060
N          4.25460        0.73770       -0.38160
C          2.98520        1.39320       -0.76410
C          2.83540        0.91910       -2.16970
C          3.14860       -0.38780       -2.04130
H          0.61360       -0.96910        0.09070
H          0.71230       -0.20640       -1.41180
H          2.32260        0.42520        1.10780
H          3.76850       -1.44340       -0.15050
H          5.04390        0.86080       -1.06590
H          2.83080        2.46860       -0.53500
H          2.56190        1.45560       -3.06810
H          3.18510       -1.14490       -2.81280
