19
8518	1
C          3.27180       -0.29780        1.07500
C          2.34740       -0.04760       -0.10970
C          3.09300        0.70700       -1.21090
O          2.19480        1.25260       -2.15210
C          2.85890        2.16700       -1.30760
C          3.88810        2.98860       -2.08470
C          4.84280        3.68240       -1.12140
H          2.72630       -0.86040        1.86160
H          3.61830        0.66800        1.50130
H          4.15390       -0.89380        0.75700
H          1.45680        0.52000        0.24020
H          2.00030       -1.02190       -0.51510
H          3.96190        0.24810       -1.72940
H          2.13220        2.65950       -0.62660
H          3.35430        3.75490       -2.68620
H          4.47670        2.34970       -2.77970
H          4.28070        4.35390       -0.43760
H          5.57530        4.28910       -1.69420
H          5.39530        2.92880       -0.52010
