16
8136	1
C          1.79170       -0.96240       -0.93890
C          2.62500       -0.19010        0.07690
C          2.95810        1.17960       -0.45050
C          4.22790        1.57570       -0.62010
C          4.53640        2.92040       -1.13690
N          5.75840        3.28060       -1.29200
O          6.04610        4.47880       -1.75270
H          1.54100       -1.96420       -0.53060
H          2.36250       -1.09470       -1.88300
H          0.84620       -0.42070       -1.15650
H          3.54580       -0.77240        0.30060
H          2.04590       -0.07930        1.01830
H          2.14220        1.85540       -0.69500
H          5.04670        0.90360       -0.37640
H          3.73040        3.60710       -1.38660
H          6.96840        4.74410       -1.86710
