12
9291	1
N          1.03410        0.07790        0.09470
C          2.19040        0.03270        0.09560
C          3.63030       -0.02410        0.09660
C          4.41030        1.05060        0.10000
C          5.72510        0.66510        0.10000
C          5.79450       -0.70720        0.09660
C          4.42330       -1.30020        0.09400
H          4.05790        2.07440        0.10230
H          6.58040        1.32760        0.10240
H          6.71860       -1.26980        0.09590
H          4.23740       -1.90300        1.00770
H          4.23890       -1.89840       -0.82320
