16
7950	1
C          1.16480       -0.20370       -0.23190
N          2.61750       -0.04740       -0.16150
C          2.98550        0.96040        0.83670
C          4.48340        1.03350        0.94990
C          5.15180        2.16950        0.70370
C          6.61880        2.22220        0.82130
O          7.21160        3.26360        0.59250
H          0.91400       -0.97060       -0.99410
H          0.67750        0.75270       -0.51950
H          0.76560       -0.54750        0.74550
H          2.96120        0.26320       -1.10090
H          2.58570        0.67140        1.83280
H          2.55360        1.94850        0.55710
H          5.02540        0.13710        1.24010
H          4.61450        3.06820        0.41300
H          7.18120        1.33990        1.11110
