15
8022	2
C          1.26820       -0.06420        0.28270
O          2.63650       -0.13270        0.18730
N          3.25950        0.37400       -0.85660
C          4.53870        0.30950       -0.94450
N          5.20010        0.85810       -2.07260
C          6.61540        0.79310       -2.18140
C          7.24360        1.30790       -3.24120
H          0.94290       -0.54420        1.22840
H          0.80120       -0.59690       -0.57280
H          0.94080        0.99720        0.28430
H          5.11430       -0.16610       -0.15330
H          4.64450        1.30710       -2.81750
H          7.20000        0.32020       -1.39670
H          6.68540        1.78620       -4.04030
H          8.32510        1.25130       -3.31140
