13
8636	1
C          2.01260        1.15490       -0.53380
N          2.27760        0.08950       -1.20260
N          3.31600       -0.75870       -0.87320
C          3.13070       -2.16380       -0.97990
C          4.10640       -1.31280       -1.90550
C          5.52710       -1.46500       -1.57170
C          6.70160       -1.63620       -1.35360
H          1.19110        1.78980       -0.85930
H          2.59080        1.44330        0.33760
H          2.11180       -2.37520       -1.36570
H          3.50880       -2.63950       -0.04920
H          3.78150       -0.95850       -2.90180
H          7.73270       -1.78720       -1.16210
