19
7515	1
C          1.08540       -2.05770        1.27290
C          2.25830       -1.37730        0.58340
O          3.45360       -2.01590        0.97600
C          4.55020       -1.39450        0.33840
C          5.84910       -2.07160        0.77500
C          6.04890       -1.95180        2.26390
C          7.11420       -1.33260        2.78140
H          0.13590       -1.56550        0.97380
H          1.19750       -1.98410        2.37560
H          1.04270       -3.12900        0.98270
H          2.26030       -0.30720        0.89290
H          2.10420       -1.46510       -0.51640
H          4.61270       -0.31470        0.60870
H          4.47010       -1.50670       -0.76710
H          6.69410       -1.60360        0.22310
H          5.81470       -3.14830        0.50290
H          5.30940       -2.38120        2.93380
H          7.87260       -0.89300        2.14090
H          7.22990       -1.26380        3.85820
