9
000016.xyz
C -1.20842200 -0.23906900 -0.02191700
C 0.08389300 0.55345200 0.04673400
O 1.23346700 -0.25600200 -0.10586400
H -2.07199900 0.42513600 0.05170000
H -1.27067000 -0.95775600 0.79973100
H -1.27062500 -0.78828000 -0.96232700
H 0.13003000 1.11919700 0.98611200
H 0.12595200 1.27702600 -0.76854700
H 1.23675100 -0.91360500 0.59134100
