9
000031.xyz
C 0.51684500 0.69483000 -0.00000000
C -0.86016600 0.10019500 0.00000000
C 0.34330800 -0.79502100 -0.00000000
H 0.86651400 1.16485800 0.90917600
H 0.86651300 1.16485900 -0.90917600
H -1.44204700 0.16796400 -0.90917700
H -1.44204800 0.16796500 0.90917600
H 0.57557400 -1.33283700 -0.90917900
H 0.57557400 -1.33283700 0.90917900
